81
  -185.43956366
   Na          -6.21068074          -6.35792194          -3.77784385
   Cl          -6.37412500          -6.55746451          -1.29152163
   Cl          -6.57005143          -3.88852068          -4.11478671
   Na          -6.40610111          -3.93400681          -1.39725131
   Na          -6.46535826          -1.31694101          -3.81017497
   Cl          -6.69028810          -1.35743099          -1.18126541
   Cl          -6.65021654           1.25388949          -4.09279066
   Na          -6.52544276           1.21186214          -1.43996772
   Na          -6.48306267           3.82221469          -3.91229211
   Cl          -6.62587526           3.81028245          -1.19656301
   Cl          -6.48015942           6.42344862          -4.08172314
   Na          -6.31393860           6.28441487          -1.58939056
   Cl          -3.73540713          -6.68756937          -4.15330124
   Na          -3.76660076          -6.60500427          -1.44041405
   Na          -3.83913061          -3.94949431          -3.95655127
   Cl          -3.80149296          -4.01690145          -1.24237966
   Cl          -3.88146712          -1.33720282          -3.94337635
   Na          -3.95827352          -1.41542995          -0.97558856
   Na          -3.91361343           1.25499445          -3.88146743
   Cl          -3.92613040           1.33311111          -1.17459478
   Cl          -3.87869746           3.87562681          -4.05778778
   Na          -3.89001619           3.94181023          -1.32496874
   Na          -3.88442257           6.48127237          -3.94792684
   Cl          -3.83996444           6.66764231          -1.23747249
   Na          -1.15997244          -6.53482610          -3.93409115
   Cl          -1.17243869          -6.75694817          -1.28336076
   Cl          -1.21712351          -3.94209781          -4.18507784
   Na          -1.20579236          -4.01623590          -1.41916122
   Na          -1.25510590          -1.30582243          -3.91653966
   Cl          -1.24345233          -1.37646209          -1.26259373
   Cl          -1.27141775           1.32073884          -3.96996619
   Na          -1.26466712           1.35405423          -1.08420400
   Na          -1.28007537           3.94782952          -3.91132509
   Cl          -1.26128782           3.98987259          -1.16023046
   Cl          -1.30877707           6.67911455          -4.14077912
   Na          -1.25858465           6.57288927          -1.48554611
   Cl           1.42077574          -6.66967530          -4.16542061
   Na           1.40107529          -6.57422904          -1.50983606
   Na           1.37542848          -3.94176894          -3.93743120
   Cl           1.40950667          -3.99403681          -1.19736318
   Cl           1.38698914          -1.30054000          -3.99194906
   Na           1.37843728          -1.38055131          -1.15461869
   Na           1.33385393           1.31045956          -3.91091507
   Cl           1.44244482           1.38005122          -1.19350758
   Cl           1.32309639           3.94749605          -4.14887514
   Na           1.33211187           4.02194261          -1.41059353
   Na           1.26052703           6.54508985          -3.94205176
   Cl           1.32910046           6.73926541          -1.28466453
   Na           3.99204687          -6.46034965          -3.99406694
   Cl           3.99278570          -6.62466136          -1.28689266
   Cl           3.98807921          -3.85103463          -4.10296025
   Na           4.02064608          -3.87656088          -1.37333088
   Na           4.01237328          -1.25133537          -3.96830152
   Cl           4.04517156          -1.22952444          -1.19313007
   Cl           3.97121178           1.35047983          -4.22546442
   Na           4.07581547           1.36013662          -1.52108855
   Na           3.93927536           3.97428095          -4.09274536
   Cl           3.95725145           3.95951619          -1.33497023
   Cl           3.83350834           6.69450087          -4.22394757
   Na           3.90138589           6.57059809          -1.51912804
   Cl           6.59529649          -6.39837161          -4.16990000
   Na           6.45487744          -6.24891353          -1.67662652
   Na           6.59397608          -3.80623297          -4.01091677
   Cl           6.75844954          -3.76784802          -1.29531671
   Cl           6.74145686          -1.22676350          -4.19699292
   Na           6.63074623          -1.19484045          -1.54968554
   Na           6.57266281           1.34401826          -4.00754650
   Cl           6.77175359           1.39016903          -1.34295483
   Cl           6.66379133           3.92184933          -4.24556260
   Na           6.56550885           3.96907000          -1.54179646
   Na           6.31972445           6.40200564          -3.89918999
   Cl           6.50315168           6.56496545          -1.40663321
    O           1.43284436          -0.66260647           1.00119520
    H           2.16033615          -0.47920272           1.59719598
    H           1.46698710           0.05759315           0.34003964
    O          -1.13397696           0.56183687           1.02784134
    H          -0.41145315           0.22691207           1.57062724
    H          -1.22515207          -0.13671270           0.34997222
    O          -3.64640609          -0.72666151           1.06307376
    H          -2.99664525          -0.41007610           1.69760376
    H          -3.76862513           0.03804046           0.47520038
