 10
 Free_Energy: -135.066622 Electronic_Energy: -135.134508382
H	-0.770327 1.206659 0.000000
H	0.964253 -0.784821 1.271130
H	-0.025367 0.430439 2.086660
H	-0.804267 -0.948741 1.264400
H	0.964253 -0.784821 -1.271130
H	-0.804267 -0.948741 -1.264400
H	-0.025367 0.430439 -2.086660
C	0.026373 -0.221911 1.210840
C	0.026373 -0.221911 -1.210840
N	0.026373 0.580359 0.000000
