 17
 Free_Energy: -835.205079 Electronic_Energy: -835.302994957
H	1.225412 -0.079746 0.806300
S	-1.290391 -0.146593 0.011183
O	-1.877749 1.382602 0.032089
O	-0.435841 -0.213097 -1.209908
O	-2.448576 -1.022491 -0.009313
O	-0.450754 -0.175174 1.233451
H	-2.730428 1.366344 -0.421801
N	1.900527 -0.014960 0.007405
H	1.185951 -0.092904 -0.763465
C	2.823320 -1.164256 -0.004481
H	3.469223 -1.123884 0.874113
H	3.429797 -1.134402 -0.911061
H	2.233197 -2.080589 0.013233
C	2.538216 1.314837 -0.017002
H	3.176484 1.430402 0.860448
H	1.752896 2.071062 -0.004794
H	3.134174 1.415717 -0.925392
