 11
 Free_Energy: -756.658718 Electronic_Energy: -756.702646746
N	-2.766484 0.040318 -0.051756
H	-3.458359 -0.685825 -0.207532
H	-1.376277 -0.232287 -0.726882
H	-3.187901 0.935068 -0.279960
H	-2.524394 0.045522 0.936992
S	0.615837 -0.116996 0.091080
O	-0.061314 -0.145831 1.368732
O	-0.406255 -0.436353 -1.049801
O	0.946883 1.448158 -0.157603
O	1.823031 -0.863935 -0.159822
H	1.640162 1.510908 -0.829651
