81
  -185.44040336
   Na          -6.19088710          -6.36341918          -3.62951238
   Cl          -6.23591241          -6.53976362          -1.13028998
   Cl          -6.51661751          -3.88366177          -3.94164677
   Na          -6.26759911          -3.92844622          -1.24440079
   Na          -6.40667124          -1.30005569          -3.65596792
   Cl          -6.56075503          -1.36917890          -1.00605072
   Cl          -6.57041706           1.26000042          -3.92758386
   Na          -6.38357734           1.22261641          -1.26820005
   Na          -6.38906898           3.83657444          -3.65423477
   Cl          -6.55449613           3.78651704          -0.96751188
   Cl          -6.35813551           6.43865208          -3.82315596
   Na          -6.09222233           6.24554029          -1.33458576
   Cl          -3.72369333          -6.68941921          -4.08208101
   Na          -3.65307030          -6.59662761          -1.38371243
   Na          -3.79767976          -3.96045764          -3.88663843
   Cl          -3.64000955          -3.99609166          -1.13350740
   Cl          -3.81459796          -1.35525696          -3.86680589
   Na          -3.86484682          -1.36625639          -1.00185310
   Na          -3.83223951           1.26947401          -3.80659270
   Cl          -3.78119856           1.24031812          -1.13856461
   Cl          -3.78891672           3.87766593          -3.74455460
   Na          -3.80863441           3.92395123          -0.83928409
   Na          -3.75453126           6.47479096          -3.73514727
   Cl          -3.61450767           6.67537283          -1.05680558
   Na          -1.13897728          -6.57469422          -3.96896946
   Cl          -1.06435181          -6.77676957          -1.30446546
   Cl          -1.18373756          -3.97157152          -4.17639131
   Na          -1.06027964          -4.07780834          -1.47551670
   Na          -1.19217771          -1.33275173          -3.87568145
   Cl          -1.06177630          -1.44184865          -1.16191744
   Cl          -1.18919826           1.27432839          -3.93074810
   Na          -1.03773207           1.26360171          -1.04356155
   Na          -1.19323392           3.91468516          -3.84399870
   Cl          -1.04237472           3.92629643          -1.13175603
   Cl          -1.18472936           6.64502365          -4.06853248
   Na          -1.06270051           6.52624395          -1.41752334
   Cl           1.43086453          -6.71125057          -4.26592512
   Na           1.50121810          -6.59674528          -1.61514903
   Na           1.42760864          -3.98976817          -4.07220327
   Cl           1.53542873          -4.00260320          -1.29824392
   Cl           1.43180024          -1.35533021          -4.19898242
   Na           1.54932544          -1.35370283          -1.48290276
   Na           1.42280374           1.26799627          -3.93529145
   Cl           1.58318101           1.25578287          -1.21206276
   Cl           1.41515064           3.88657980          -4.18370408
   Na           1.53644866           3.90395450          -1.43709332
   Na           1.38629484           6.47830883          -3.93357059
   Cl           1.53371321           6.63430328          -1.27752755
   Na           4.01699549          -6.54421460          -4.15867738
   Cl           4.07890571          -6.71866674          -1.44668656
   Cl           4.02915819          -3.93618945          -4.25152499
   Na           4.15858624          -3.98849423          -1.51924040
   Na           4.08211904          -1.33084704          -4.12707097
   Cl           4.17641737          -1.36901410          -1.36556584
   Cl           4.04631033           1.26577091          -4.27517545
   Na           4.20145373           1.24665273          -1.52293892
   Na           4.04022192           3.88918012          -4.17504815
   Cl           4.14229256           3.85500902          -1.43412340
   Cl           3.95482778           6.60966967          -4.28377916
   Na           4.09936703           6.46237044          -1.57879176
   Cl           6.60850244          -6.50361183          -4.38973154
   Na           6.54323971          -6.37657651          -1.89241626
   Na           6.64211099          -3.90789239          -4.20967470
   Cl           6.88532085          -3.90415012          -1.50469545
   Cl           6.80204560          -1.33413939          -4.38933164
   Na           6.75728742          -1.31953352          -1.73095953
   Na           6.64906689           1.23794407          -4.14358961
   Cl           6.92506967           1.25495877          -1.49599817
   Cl           6.76655248           3.80953772          -4.40303272
   Na           6.73844686           3.83682338          -1.69069801
   Na           6.44415775           6.28644860          -4.02707040
   Cl           6.70640947           6.43584087          -1.54239065
    O          -3.02612493          -1.43491901           1.09477176
    H          -2.33735188          -1.47343374           0.40034992
    H          -2.79752212          -2.14437015           1.69696673
    O          -1.76608308           1.11443587           1.08643605
    H          -2.48354026           1.20627908           0.42922349
    H          -2.08389241           0.38899312           1.63564779
    O          -3.04743401           3.62897706           1.16010002
    H          -2.29734360           3.77793528           0.55995110
    H          -2.70643918           2.96556057           1.76762229
