81
  -185.43427449
   Na          -6.30733571          -6.39991539          -4.04218933
   Cl          -6.52830213          -6.60839002          -1.55826556
   Cl          -6.64451082          -3.91815482          -4.37402357
   Na          -6.56792699          -4.00388169          -1.66741436
   Na          -6.53175737          -1.34123331          -4.07987414
   Cl          -6.74953698          -1.42872564          -1.42161948
   Cl          -6.68175226           1.24155306          -4.24190963
   Na          -6.64357590           1.15593997          -1.60199985
   Na          -6.50392104           3.81982506          -3.99711882
   Cl          -6.72262110           3.72746088          -1.27990369
   Cl          -6.47105974           6.41735049          -4.07625341
   Na          -6.37823735           6.21642689          -1.58671419
   Cl          -3.82377078          -6.72474041          -4.36852652
   Na          -3.92305164          -6.64444333          -1.65871920
   Na          -3.91397917          -3.99270739          -4.21537611
   Cl          -3.96723504          -4.04244475          -1.47520015
   Cl          -3.93646265          -1.36686917          -4.28242993
   Na          -4.01387720          -1.42862031          -1.54026767
   Na          -3.95262567           1.23566448          -3.98357686
   Cl          -4.06876151           1.18327456          -1.21011432
   Cl          -3.89997632           3.84282194          -4.05540756
   Na          -3.97957308           3.83595498          -1.34438963
   Na          -3.86707986           6.45034895          -3.84769866
   Cl          -3.91924335           6.54359027          -1.12956514
   Na          -1.24831582          -6.59992153          -4.06955281
   Cl          -1.34709710          -6.82862930          -1.41837950
   Cl          -1.28776775          -4.00208248          -4.27931024
   Na          -1.35345355          -4.10958268          -1.52311969
   Na          -1.29825382          -1.35920187          -4.02522418
   Cl          -1.40058003          -1.49623036          -1.32765407
   Cl          -1.33509640           1.25052312          -4.01950787
   Na          -1.31671965           1.16043727          -1.12878895
   Na          -1.28073191           3.89039057          -3.80143937
   Cl          -1.38667505           3.83476595          -1.10607208
   Cl          -1.29955271           6.63541118          -3.94916815
   Na          -1.30785719           6.42140697          -1.29507642
   Cl           1.33912106          -6.74315979          -4.23517001
   Na           1.23163361          -6.65840278          -1.57987750
   Na           1.31157072          -4.02001903          -4.04876136
   Cl           1.25510534          -4.06833746          -1.28417228
   Cl           1.33663737          -1.37864645          -4.21993904
   Na           1.21063576          -1.45575294          -1.49839273
   Na           1.29060032           1.26764997          -3.92625024
   Cl           1.26295681           1.11804950          -1.27326717
   Cl           1.30603806           3.88350663          -3.91374242
   Na           1.26282798           3.87689239          -0.81914367
   Na           1.26692440           6.45208386          -3.61648164
   Cl           1.24683078           6.64339302          -0.98074507
   Na           3.90857093          -6.55340884          -3.95521397
   Cl           3.80434151          -6.77040017          -1.25089432
   Cl           3.92875237          -3.93954591          -4.01619565
   Na           3.87048931          -4.04039556          -1.29067727
   Na           3.95542720          -1.33067367          -3.88314487
   Cl           3.87068355          -1.40310695          -1.09313161
   Cl           3.95260224           1.25895889          -3.99268353
   Na           3.84507580           1.29810484          -1.20093426
   Na           3.91226902           3.90315192          -3.89232860
   Cl           3.91989190           3.87066592          -1.23539012
   Cl           3.83943293           6.64381236          -3.92017740
   Na           3.81655037           6.45455743          -1.19572593
   Cl           6.51486847          -6.50015711          -4.02424890
   Na           6.28764816          -6.41172590          -1.53473308
   Na           6.52958384          -3.90880415          -3.81740898
   Cl           6.58915240          -3.93850092          -1.09100570
   Cl           6.69950132          -1.32369039          -3.91921553
   Na           6.48274785          -1.36592831          -1.29934323
   Na           6.51690357           1.24822183          -3.64103739
   Cl           6.60662505           1.21140900          -0.93844317
   Cl           6.69131119           3.80662893          -3.88418590
   Na           6.49908286           3.83774846          -1.19050827
   Na           6.28947050           6.27506877          -3.48363162
   Cl           6.44850996           6.42677458          -0.99096423
    O           4.04023865           1.00714608           0.91839769
    H           4.94095066           1.18911767           0.61275170
    H           3.85880010           0.12922590           0.55153553
    O           1.73560833           2.97714835           1.11316206
    H           1.46923941           2.27068504           0.50323502
    H           2.52331941           2.61082377           1.52728292
    O          -1.89927297           1.14858292           0.95675918
    H          -2.18317979           1.42790449           1.82672854
    H          -2.69628365           1.17685811           0.40227132
