81
  -185.43724513
   Na          -6.28086472          -6.28861382          -3.70588039
   Cl          -6.43070359          -6.39189794          -1.20911389
   Cl          -6.60799896          -3.81769449          -4.11867942
   Na          -6.47218209          -3.80626572          -1.40981258
   Na          -6.49632223          -1.22730158          -3.98129048
   Cl          -6.65260479          -1.22971420          -1.31748073
   Cl          -6.63602752           1.35601546          -4.16448523
   Na          -6.49733883           1.34015680          -1.50983832
   Na          -6.46157854           3.93295989          -3.97164045
   Cl          -6.60300703           3.91072929          -1.25717947
   Cl          -6.43209567           6.53291501          -4.12600863
   Na          -6.26431765           6.38207307          -1.63396947
   Cl          -3.80753623          -6.62655509          -4.04827652
   Na          -3.82453620          -6.40873312          -1.34727083
   Na          -3.87461028          -3.89016145          -3.98469218
   Cl          -3.86520668          -3.79212873          -1.24626697
   Cl          -3.90899386          -1.26856992          -4.33448462
   Na          -3.94367760          -1.22988789          -1.60572434
   Na          -3.90059238           1.33539978          -3.98925700
   Cl          -3.90612400           1.33927941          -1.24012952
   Cl          -3.85813825           3.95095614          -4.09578754
   Na          -3.86821915           3.96818763          -1.36437852
   Na          -3.83312771           6.55614036          -3.97701867
   Cl          -3.78892653           6.70881207          -1.26674421
   Na          -1.23739898          -6.49862889          -3.76257345
   Cl          -1.25806818          -6.66682924          -1.11009787
   Cl          -1.27246626          -3.92204130          -4.02681925
   Na          -1.26371637          -3.95181951          -1.00292907
   Na          -1.25438169          -1.27309468          -4.21466591
   Cl          -1.26037675          -1.25134594          -1.57844334
   Cl          -1.27577395           1.37285052          -4.05908086
   Na          -1.27475549           1.39359771          -1.04489253
   Na          -1.25454889           3.99321741          -3.93814374
   Cl          -1.23869699           4.01141165          -1.17859528
   Cl          -1.25739850           6.72373445          -4.16036728
   Na          -1.20838205           6.59685766          -1.50609401
   Cl           1.32253055          -6.68792847          -4.06963055
   Na           1.31739573          -6.51406637          -1.42007777
   Na           1.31767592          -3.94423190          -3.93579791
   Cl           1.37907924          -3.92630148          -1.21199732
   Cl           1.37943425          -1.29831052          -4.23519802
   Na           1.45156776          -1.33229401          -1.42847995
   Na           1.33274925           1.32176088          -4.00114197
   Cl           1.40613265           1.38611116          -1.28135726
   Cl           1.34405076           3.96683150          -4.21645886
   Na           1.35829680           4.02649384          -1.47895148
   Na           1.31451165           6.56323645          -3.98153560
   Cl           1.37860918           6.74070887          -1.32384312
   Na           3.89585100          -6.50063484          -3.93396134
   Cl           3.91445646          -6.61188982          -1.21993306
   Cl           3.93005162          -3.89994177          -4.13337538
   Na           4.00025571          -3.87687115          -1.38867351
   Na           4.01463333          -1.28525465          -4.13868633
   Cl           4.06697698          -1.24803854          -1.40525967
   Cl           3.96961349           1.33371201          -4.28135090
   Na           4.07216289           1.34028271          -1.54029924
   Na           3.96511488           3.95417998          -4.14936213
   Cl           3.97726544           3.93895909          -1.39988672
   Cl           3.88779927           6.68256136          -4.25884147
   Na           3.95223163           6.54979888          -1.55107315
   Cl           6.49477412          -6.47952779          -4.13839834
   Na           6.38233799          -6.29180412          -1.64725409
   Na           6.53482586          -3.87553352          -4.03440336
   Cl           6.74294445          -3.81158796          -1.32980844
   Cl           6.73908132          -1.29741883          -4.29738684
   Na           6.65342078          -1.24122704          -1.63899472
   Na           6.56897201           1.28045470          -4.06055966
   Cl           6.79387965           1.33934847          -1.40766642
   Cl           6.69011447           3.86616146          -4.29318935
   Na           6.59100508           3.91330869          -1.58348414
   Na           6.36704868           6.34424554          -3.92709186
   Cl           6.55434558           6.51079922          -1.43650105
    O          -0.83055057          -2.82507313           0.96586600
    H          -0.86421437          -2.30719257           0.14317230
    H           0.10620379          -2.80719512           1.18760987
    O           1.24504557          -0.86567930           0.74080084
    H           0.69426028          -0.52990799           1.45456773
    H           1.36168971          -0.08174582           0.17220668
    O          -1.30794238           0.21574547           1.02055290
    H          -1.61273987          -0.45491761           1.63742950
    H          -1.27885343          -0.26360336           0.17016032
