81
  -185.43374917
   Na          -6.36872349          -6.23480098          -3.82720636
   Cl          -6.52149037          -6.36381799          -1.33517252
   Cl          -6.70367510          -3.76108996          -4.21793276
   Na          -6.58011488          -3.76752255          -1.50572460
   Na          -6.57008263          -1.18640260          -4.01988033
   Cl          -6.75437109          -1.17630428          -1.36273189
   Cl          -6.71290034           1.38823155          -4.27343334
   Na          -6.57077340           1.39176556          -1.61795294
   Na          -6.53294328           3.96680407          -4.10212092
   Cl          -6.67938039           3.97005593          -1.39268293
   Cl          -6.49081343           6.56299458          -4.27594852
   Na          -6.34107644           6.44358795          -1.78048621
   Cl          -3.89838326          -6.56976830          -4.20144769
   Na          -3.90890950          -6.38869785          -1.47188555
   Na          -3.96542523          -3.85486110          -4.07335782
   Cl          -3.97785049          -3.77194075          -1.36053717
   Cl          -3.96865915          -1.23314646          -4.26450964
   Na          -4.05211498          -1.18510922          -1.52699082
   Na          -3.99073932           1.37076360          -4.13083916
   Cl          -3.97001227           1.41650742          -1.36449151
   Cl          -3.92377765           3.97605653          -4.24179125
   Na          -3.95489075           4.04356041          -1.50207766
   Na          -3.89176723           6.58594220          -4.12847874
   Cl          -3.86103551           6.77144418          -1.42321005
   Na          -1.32368113          -6.48003912          -3.92537939
   Cl          -1.34672071          -6.74381437          -1.30451944
   Cl          -1.34591666          -3.88003980          -4.02627270
   Na          -1.35403162          -4.03735380          -1.15727189
   Na          -1.34169533          -1.25769114          -3.96817950
   Cl          -1.40314088          -1.18435464          -1.24268550
   Cl          -1.34796022           1.36749425          -4.28037606
   Na          -1.34073053           1.43619243          -1.57019543
   Na          -1.31907969           4.02042637          -4.13531374
   Cl          -1.33029166           4.04941335          -1.37656912
   Cl          -1.31394512           6.74607722          -4.32076743
   Na          -1.27849715           6.63990179          -1.66248804
   Cl           1.25049013          -6.63381812          -4.19001429
   Na           1.21523258          -6.48915992          -1.53172462
   Na           1.25150612          -3.91288442          -3.99305087
   Cl           1.32062401          -3.88949889          -1.26700899
   Cl           1.27789670          -1.27309906          -4.09658951
   Na           1.36505781          -1.19820251          -1.28996320
   Na           1.27413473           1.34869687          -4.07357377
   Cl           1.27699006           1.42000075          -1.35375499
   Cl           1.27918203           3.97825053          -4.31445436
   Na           1.28128033           4.05284478          -1.55331427
   Na           1.25819257           6.57599750          -4.09435725
   Cl           1.30315574           6.77283898          -1.44250547
   Na           3.82339787          -6.47846877          -4.01052249
   Cl           3.81114826          -6.59514607          -1.29620287
   Cl           3.86080870          -3.87224465          -4.19201705
   Na           3.94393472          -3.87287810          -1.46593166
   Na           3.92665679          -1.26679654          -4.08309951
   Cl           3.98153684          -1.25298641          -1.35044101
   Cl           3.89856647           1.33282042          -4.31616591
   Na           3.93289359           1.35065420          -1.55176573
   Na           3.90106604           3.95690421          -4.21873070
   Cl           3.89180821           3.96486187          -1.48016418
   Cl           3.83092355           6.68649227          -4.36368383
   Na           3.88107171           6.57115285          -1.65489520
   Cl           6.42225678          -6.46235874          -4.17012445
   Na           6.29150725          -6.29029575          -1.67824433
   Na           6.47073512          -3.86097416          -4.06224035
   Cl           6.66221425          -3.81072667          -1.35306574
   Cl           6.65797986          -1.28606645          -4.28271811
   Na           6.56248631          -1.22515048          -1.62558265
   Na           6.49427535           1.28965970          -4.07778309
   Cl           6.67872359           1.35786241          -1.42561756
   Cl           6.62352396           3.86419834          -4.35773610
   Na           6.49859509           3.92907082          -1.64671954
   Na           6.31038590           6.34754480          -4.02386139
   Cl           6.48163166           6.52968420          -1.53378674
    O          -1.34426090          -3.48546208           0.89274227
    H          -1.18877077          -3.18367472           1.80286452
    H          -1.71686933          -2.71367417           0.44856059
    O           0.86873463          -1.59316466           0.76238568
    H           0.05866777          -1.29593201           0.31538731
    H           0.97403059          -2.49033807           0.40375911
    O          -0.35973594          -2.22582731           3.16912098
    H           0.16461385          -1.79983518           2.46807180
    H           0.25110224          -2.80904949           3.62255039
