81
  -185.44040329
   Na          -6.19044724          -6.36385527          -3.61220490
   Cl          -6.23097283          -6.53332013          -1.11298363
   Cl          -6.51721059          -3.88447845          -3.93338822
   Na          -6.26014296          -3.92213147          -1.23859175
   Na          -6.40296817          -1.29945881          -3.65697069
   Cl          -6.55735942          -1.36413027          -1.00884653
   Cl          -6.57065379           1.26230909          -3.92939019
   Na          -6.37907386           1.22573578          -1.27104028
   Na          -6.38825857           3.83971627          -3.65311250
   Cl          -6.55164431           3.78603501          -0.96666689
   Cl          -6.35917103           6.44364072          -3.81177663
   Na          -6.09100444           6.24711309          -1.32464398
   Cl          -3.72444493          -6.69350644          -4.07166580
   Na          -3.64939149          -6.59465188          -1.37372789
   Na          -3.79945284          -3.96320553          -3.89210992
   Cl          -3.63584054          -3.99102190          -1.13697104
   Cl          -3.81426403          -1.35588522          -3.88190400
   Na          -3.86052728          -1.36115323          -1.01400701
   Na          -3.83188124           1.27097772          -3.81811540
   Cl          -3.77850856           1.23975419          -1.15034510
   Cl          -3.78862917           3.87965341          -3.75558110
   Na          -3.80792709           3.92490452          -0.85109876
   Na          -3.75501593           6.47889329          -3.73178035
   Cl          -3.61116619           6.67374454          -1.05292629
   Na          -1.13891242          -6.57450051          -3.96055409
   Cl          -1.06183958          -6.77350921          -1.29429622
   Cl          -1.18490959          -3.97333045          -4.17376353
   Na          -1.05443766          -4.07703958          -1.47228413
   Na          -1.19128049          -1.33251082          -3.87337278
   Cl          -1.06168258          -1.44138318          -1.16155390
   Cl          -1.18958617           1.27555547          -3.93055219
   Na          -1.03594020           1.26489382          -1.04406100
   Na          -1.19113464           3.91601661          -3.84442369
   Cl          -1.03984463           3.92931609          -1.13238663
   Cl          -1.18418353           6.64746727          -4.06304020
   Na          -1.05734001           6.52935964          -1.41180003
   Cl           1.42947244          -6.71197749          -4.26203590
   Na           1.50308329          -6.59580325          -1.61094331
   Na           1.42586427          -3.98862981          -4.06896187
   Cl           1.53979951          -4.00156963          -1.29461880
   Cl           1.43042403          -1.35419898          -4.19862476
   Na           1.54869365          -1.35046223          -1.48340363
   Na           1.42132466           1.26933298          -3.93562091
   Cl           1.58335075           1.25810381          -1.21146384
   Cl           1.41656401           3.88936135          -4.18077693
   Na           1.53989024           3.90697357          -1.43351703
   Na           1.38775668           6.48174166          -3.92825573
   Cl           1.53952941           6.64027613          -1.27451215
   Na           4.01467771          -6.54150620          -4.15780834
   Cl           4.08145591          -6.71802774          -1.44614886
   Cl           4.02708410          -3.93425811          -4.24630198
   Na           4.16232055          -3.98641488          -1.51436808
   Na           4.08077941          -1.32834615          -4.12222504
   Cl           4.17691607          -1.36640339          -1.36145622
   Cl           4.04546470           1.26751385          -4.27268091
   Na           4.20322301           1.24779898          -1.52165490
   Na           4.03993974           3.89008532          -4.16902013
   Cl           4.14509050           3.85690127          -1.42705695
   Cl           3.95568470           6.61109395          -4.28258133
   Na           4.10558434           6.46429682          -1.57954935
   Cl           6.60462806          -6.50208620          -4.39861494
   Na           6.54360027          -6.37416463          -1.90040572
   Na           6.64084984          -3.90609692          -4.21335151
   Cl           6.88882238          -3.90396536          -1.50892395
   Cl           6.80147650          -1.33341225          -4.38854628
   Na           6.75776640          -1.31766376          -1.72950396
   Na           6.64886236           1.23745189          -4.14490228
   Cl           6.92700600           1.25683488          -1.49756717
   Cl           6.76467492           3.80845213          -4.40468183
   Na           6.74106495           3.83846582          -1.69254878
   Na           6.44737288           6.28695027          -4.03674745
   Cl           6.71300997           6.43724248          -1.55234369
    O          -3.03945185          -1.44318281           1.08777024
    H          -2.34510371          -1.48336090           0.39915385
    H          -2.83115621          -2.16428492           1.68344462
    O          -1.77097944           1.10299077           1.08487200
    H          -2.48495421           1.19145563           0.42352260
    H          -2.08815308           0.37627486           1.63291462
    O          -3.05810323           3.61648590           1.14850078
    H          -2.30429746           3.76893092           0.55406998
    H          -2.72244388           2.94622010           1.75186428
