44
Properties=species:S:1:pos:R:3 energy:=T -113.449343490876=T gnorm:=T 0.000984695068=T xtb:=T 6.4.0=T (d4b70c2)=T pbc="F F F"
S        1.50793235       0.41337456       1.35204894
O        0.40224899      -0.01811529       2.20953785
O        1.44143398      -0.17012140       0.01366085
O        1.62450650       1.86305213       1.30676469
O        2.84229059      -0.11388779       2.01332918
H        2.80075921      -1.10064911       1.99737575
S        2.19346607      -3.66270417       0.70809680
O        3.06461963      -3.29394869      -0.38704766
O        2.22505686      -2.74105188       1.83027361
O        0.82823531      -3.95676147       0.27646547
O        2.71958330      -5.08442105       1.25868554
H        3.67320314      -5.02849186       1.38466428
S       -1.69760211      -0.53472645      -1.13840840
O       -1.63356762      -0.04346644       0.23769595
O       -0.59116929      -0.03989272      -1.96458113
O       -1.83702351      -1.97314577      -1.19953364
O       -3.02622505       0.07873530      -1.76221806
H       -2.95657988       1.04843089      -1.63912792
S       -1.85627288       4.01106030      -0.90515160
O       -0.67996102       4.42523295      -1.65829699
O       -2.08175324       2.57314000      -1.01521634
O       -1.88804711       4.46746462       0.46696117
O       -3.10977305       4.74280490      -1.60157036
H       -2.94640717       4.82019789      -2.54740782
N        0.94591813      -2.19333772      -1.77384357
H        1.71668721      -2.85639064      -1.70686075
H        1.10441650      -1.46584850      -1.06069903
H        0.87450944      -1.74466786      -2.67585438
H        0.06054643      -2.64293752      -1.54910376
N        0.83986187       2.19447001      -1.37879609
H        1.59496931       2.09465581      -2.03892176
H        1.21087970       2.18022141      -0.42482552
H        0.31395924       3.06935384      -1.54333580
H        0.19385258       1.39241581      -1.48501886
N       -1.16731980       2.19693696       1.72833584
H       -1.55640913       3.08902062       1.38139013
H       -1.39711349       1.45237537       1.05140855
H       -0.14954592       2.26022444       1.77422311
H       -1.53173883       1.94211202       2.63308015
N       -0.82815571      -2.33748726       1.57701134
H       -1.55359125      -2.13689408       0.89492588
H       -0.31199100      -1.45692097       1.76708588
H       -1.21364340      -2.70083721       2.43406821
H       -0.16504584      -3.01857397       1.15873023
