44
Properties=species:S:1:pos:R:3 energy:=T -113.447283790726=T gnorm:=T 0.000679393072=T xtb:=T 6.4.0=T (d4b70c2)=T pbc="F F F"
S        3.47950303      -2.76474212      -0.91320351
O        3.12144671      -1.49839210      -0.28201857
O        2.94653144      -3.90171816      -0.17590900
O        3.18183226      -2.77108382      -2.32986965
O        5.08168783      -2.89728432      -0.84027763
H        5.32979970      -3.25555704       0.01890607
S       -3.49387311       2.72486462       0.97408934
O       -3.10261177       1.55081140       0.20047628
O       -3.48759976       2.45236581       2.40437676
O       -2.75544843       3.90658007       0.58180698
O       -5.02027064       3.06102618       0.59086333
H       -5.60720369       2.51454074       1.12418708
S        1.61024842       0.92966556       0.93814082
O        1.00018282      -0.27081905       1.50804982
O        1.47532021       1.01028335      -0.51409252
O        1.14260507       2.13860013       1.59443468
O        3.16734931       0.82562574       1.23670802
H        3.47106464       0.02216956       0.76529517
S       -1.59164168      -0.87949109      -1.01543697
O       -1.46243981      -0.98426935       0.43728072
O       -0.98191326       0.33003449      -1.56220555
O       -1.11954370      -2.07740974      -1.68857562
O       -3.14741261      -0.77230803      -1.31977160
H       -3.44411154       0.05084285      -0.87885708
N        1.33352284      -0.83150381      -2.52678957
H        1.34451624      -0.24505432      -3.34644998
H        2.10182626      -1.52594233      -2.54541466
H        1.44286410      -0.23801439      -1.68763967
H        0.43702710      -1.31319640      -2.45355324
N       -0.58255101       2.85383639      -0.59534137
H       -0.20420018       3.32650844      -1.40113471
H       -0.83080268       1.88582075      -0.85955880
H        0.11941412       2.80568282       0.14353176
H       -1.43088675       3.32978254      -0.23920202
N        0.57676953      -2.77476902       0.51694937
H        0.83160569      -1.80425557       0.76842198
H        0.04828928      -3.17222667       1.27829745
H       -0.00931245      -2.73823384      -0.31814854
H        1.44329430      -3.30542063       0.32915459
N       -1.28582251       0.86529093       2.43166691
H       -0.46736780       1.46059644       2.29765305
H       -1.12827827       0.25399408       3.21807521
H       -2.13658042       1.43917184       2.55152315
H       -1.39682882       0.28359706       1.58356173
