44
Properties=species:S:1:pos:R:3 energy:=T -113.460822429366=T gnorm:=T 0.000654836331=T xtb:=T 6.4.0=T (d4b70c2)=T pbc="F F F"
S        0.83739202      -2.10791518      -2.34544230
O        1.99583808      -2.59476678      -1.61502186
O       -0.41273348      -2.53696702      -1.72121557
O        0.86415663      -0.69089021      -2.64247754
O        0.88485516      -2.80209067      -3.79721341
H        1.04075264      -3.74696567      -3.69105503
S       -1.02249495       3.43746035      -0.49941425
O       -0.98231346       2.50153957      -1.64794279
O        0.01955077       3.05581421       0.46429080
O       -1.04105376       4.80924777      -0.86547064
O       -2.42238893       3.15882434       0.23414543
H       -2.41476116       2.29113063       0.67805629
S        2.26820746      -0.22492350       0.71762381
O        2.56855740      -1.39629630       1.51304083
O        0.84461644      -0.18266806       0.33818589
O        2.71331383       1.03680009       1.26679884
O        3.08905108      -0.36140358      -0.65469963
H        2.86283480      -1.23676698      -1.05465879
S       -2.17549394      -0.70904288       1.84983246
O       -2.14940762       0.64833539       1.31689781
O       -2.44253579      -1.70169021       0.82779311
O       -1.01163185      -1.01329761       2.66489785
O       -3.39309801      -0.77127826       2.89926772
H       -4.22969133      -0.68841985       2.42820079
N        1.61685554       1.84461323      -1.54088975
H        1.71241962       0.86935417      -1.82746582
H        2.23408811       2.43796170      -2.07367305
H        0.62474229       2.13058166      -1.67111154
H        1.82853375       1.91066212      -0.54752206
N       -1.50611418      -0.11128568      -1.29787573
H       -1.32588230      -0.51203546      -2.21005989
H       -1.70633476       0.89135271      -1.37600133
H       -2.23694026      -0.62365393      -0.81287122
H       -0.65015469      -0.20229603      -0.74589997
N        0.30825187      -2.84387948       0.93766424
H        1.28381330      -2.52462670       0.97923673
H       -0.03892044      -2.71160045      -0.02278453
H        0.22820483      -3.81102014       1.21038259
H       -0.22890470      -2.24139486       1.56698745
N        0.31065869       1.46500898       2.57729306
H       -0.12093687       0.53585204       2.58523582
H        1.31780378       1.36439236       2.44062277
H       -0.03288423       1.98190946       1.74716252
H        0.09017861       1.97633475       3.41714989
