44
Properties=species:S:1:pos:R:3 energy:=T -113.450176580002=T gnorm:=T 0.000798031263=T xtb:=T 6.4.0=T (d4b70c2)=T pbc="F F F"
S       -0.89020831       1.53217417       2.18417249
O       -1.30162163       0.44936583       1.26916308
O        0.53160279       1.85807146       2.01922099
O       -1.76205366       2.66708802       2.10583002
O       -1.03339308       0.91616815       3.64077949
H       -0.56782636       0.05269861       3.62405997
S        1.26070569      -2.47434204       2.91434644
O        0.52949176      -1.20967820       2.87468416
O        0.77216494      -3.42714805       1.93698703
O        2.69522583      -2.26114416       2.90204199
O        0.96536898      -3.13183473       4.35982229
H        0.20652402      -3.71991005       4.28311138
S       -2.20067806      -0.67588951      -2.65170523
O       -2.81364122      -0.71138621      -1.34265947
O       -2.05763179       0.68850790      -3.17068489
O       -0.97571015      -1.44330035      -2.76720095
O       -3.22827837      -1.42380418      -3.65162272
H       -4.12403627      -1.33367231      -3.30894550
S        1.66135880       1.17978770      -1.14515911
O        0.21537412       1.06204922      -1.30746367
O        2.22841312      -0.00909212      -0.50316790
O        2.33274846       1.54056819      -2.37704677
O        1.91565146       2.39667804      -0.15266101
H        1.30281352       2.31822376       0.62443618
N       -0.07206376      -1.62399334      -0.00999070
H       -0.55416333      -0.93034630       0.57644538
H        0.80625292      -1.19857374      -0.30540586
H        0.11936110      -2.45356953       0.55720208
H       -0.64111865      -1.82504990      -0.82641007
N        0.49625261       0.49168100      -4.02017885
H       -0.42701743       0.81015283      -3.67627642
H        0.58111806       0.63722034      -5.01363247
H        1.24132316       0.97877827      -3.48570062
H        0.52191579      -0.49702429      -3.78513284
N       -2.33559073       1.89500671      -0.63570962
H       -1.98316502       1.18340517       0.05023099
H       -1.60105044       1.99194803      -1.33082697
H       -3.17054856       1.53358250      -1.07526906
H       -2.48890672       2.74994032      -0.11740584
N        2.78863358       0.29347434       2.15796821
H        2.76600285       0.23422899       1.13203978
H        3.54319607       0.88268116       2.47170338
H        1.88362977       0.67966885       2.44295493
H        2.86357411      -0.67339053       2.53305626
