44
Properties=species:S:1:pos:R:3 energy:=T -113.450196113167=T gnorm:=T 0.000498089651=T xtb:=T 6.4.0=T (d4b70c2)=T pbc="F F F"
S        2.93193472      -0.61157404       2.18745361
O        1.93310346       0.04799871       2.99244758
O        2.48856958      -1.94569786       1.74441732
O        3.46975654       0.16111781       1.08728863
O        4.20526742      -0.86221464       3.14634772
H        3.88990275      -1.06954243       4.03249136
S       -3.30452812      -0.07248248       1.60414392
O       -3.91674734       0.81372266       0.63976935
O       -2.94513599      -1.37548432       1.04366690
O       -2.21290001       0.53050942       2.34878831
O       -4.41880484      -0.36780509       2.73635111
H       -5.22636094      -0.65227427       2.29440307
S        1.40163355       1.73134844      -0.86539986
O        0.70122893       0.87500912       0.08185944
O        2.04344438       0.94240119      -1.93929023
O        0.57607836       2.79007209      -1.40781173
O        2.56552616       2.43159562      -0.05909728
H        2.99858897       1.73497793       0.49340426
S       -1.28973809      -1.13084817      -1.82694773
O       -0.40342851      -1.62357752      -0.76943892
O       -1.54594363       0.30995587      -1.71709293
O       -0.83592242      -1.48167915      -3.15845375
O       -2.67486450      -1.85909924      -1.61220600
H       -2.94020806      -1.70774383      -0.67125342
N        0.09220807       1.01364341      -3.71684199
H        0.95150443       0.99988911      -3.12152279
H       -0.56995068       1.60204336      -3.22169269
H        0.28303705       1.35577167      -4.64469644
H       -0.28858702       0.05192589      -3.71744833
N       -1.64957881       2.18342807       0.21451865
H       -1.62161605       1.36906677      -0.42564398
H       -2.59080050       2.55352604       0.20689450
H       -1.44358616       1.82738715       1.14632724
H       -0.94439449       2.84304597      -0.09854035
N        2.29196281      -1.57274412      -0.88606511
H        2.51285279      -1.80940134       0.09876979
H        1.26135258      -1.58184212      -0.97370159
H        2.59660077      -0.61368625      -1.06223158
H        2.71720139      -2.21817316      -1.53135895
N       -0.22213793      -1.13905685       1.87451715
H       -0.37103069      -0.68012824       2.76557702
H        0.10821390      -0.43182686       1.21563792
H        0.49994572      -1.84817060       1.95394203
H       -1.10364954      -1.51338367       1.51771873
