44
Properties=species:S:1:pos:R:3 energy:=T -113.460752743094=T gnorm:=T 0.000950574278=T xtb:=T 6.4.0=T (d4b70c2)=T pbc="F F F"
S        2.04839194       1.93623272      -0.74153028
O        2.24736206       1.00366680      -1.83258745
O        0.87053785       2.77928934      -0.94815517
O        2.07245562       1.32728747       0.57293403
O        3.32138383       2.92052310      -0.72970974
H        3.50021820       3.22300351      -1.62713213
S        1.30119192      -0.62661613       3.33403266
O        1.24318963      -1.74287328       2.35916249
O        0.20422071       0.30959009       3.05159203
O        1.41483458      -1.04128570       4.68741582
O        2.65500919       0.16576918       3.00187696
H        2.58030346       0.65316762       2.16149801
S       -0.84381970      -2.24019745      -2.20731698
O       -0.80358167      -2.67900053      -0.81768545
O       -2.06577859      -1.52529101      -2.53997714
O        0.35811774      -1.54002468      -2.61932827
O       -0.83254411      -3.57225080      -3.11122359
H       -1.66631837      -4.04062278      -2.99327325
S       -2.28049404       0.63327122      -0.01950036
O       -2.70187954       1.49609162      -1.10156012
O       -0.84581443       0.31021413      -0.11448582
O       -2.64544654       1.07099954       1.31009220
O       -3.05685907      -0.76244731      -0.19369321
H       -2.86233877      -1.09186957      -1.10558200
N       -1.37711683      -1.70673042       1.83543776
H       -1.62779989      -0.72960194       1.97365621
H       -1.49898393      -1.93509746       0.84755069
H       -0.36860141      -1.80956810       2.07672290
H       -1.94923527      -2.30233361       2.41392929
N       -0.53989709       1.07700162      -2.75534941
H       -0.11731285       0.13981431      -2.69917073
H       -0.02506908       1.70424606      -2.13066409
H       -0.51735356       1.41392777      -3.70500133
H       -1.50088390       1.02152831      -2.40275743
N       -0.29104138       2.49461349       1.61529035
H        0.06301746       2.58108148       0.65812635
H        0.12998123       1.65137400       2.04695679
H       -0.06489295       3.30930764       2.16363466
H       -1.29573566       2.31414897       1.58763219
N        1.57398245      -1.24713534      -0.26175745
H        2.26190881      -0.74399502      -0.81425369
H        1.36704691      -2.14885079      -0.67381039
H        1.85309273      -1.35375616       0.71940032
H        0.71255231      -0.69660190      -0.27143628
