44
Properties=species:S:1:pos:R:3 energy:=T -113.450999051103=T gnorm:=T 0.000547880335=T xtb:=T 6.4.0=T (d4b70c2)=T pbc="F F F"
S        3.17305352      -2.87517696      -0.29274391
O        3.59494706      -1.49910802      -0.50915400
O        3.00729159      -3.22235171       1.10299930
O        2.02440922      -3.24286072      -1.11358861
O        4.35316293      -3.81203333      -0.86873919
H        5.12812321      -3.70422808      -0.30623779
S       -3.28909356       2.83618883       0.20188730
O       -3.00791771       3.26331439      -1.15428500
O       -3.69862016       1.44770913       0.31156658
O       -2.21826162       3.17842819       1.13418852
O       -4.52894792       3.72646002       0.72211131
H       -5.25993967       3.61897891       0.10345526
S        1.77652614       0.98445780       0.62042425
O        1.02582239      -0.25925329       0.81023000
O        1.86131119       1.36865222      -0.78729681
O        1.27739922       2.05605321       1.46359613
O        3.25440028       0.68680639       1.11404079
H        3.55699396      -0.12177789       0.64090903
S       -1.72407662      -0.99980106      -0.68481849
O       -1.71934387      -1.16179185       0.77638109
O       -1.01553037       0.22086425      -1.09952356
O       -1.23953756      -2.17227179      -1.37223511
O       -3.23052783      -0.80344116      -1.11417400
H       -3.54889890       0.02829829      -0.68645813
N        1.31222278      -0.88740120      -2.17197745
H        2.09416922      -0.34518724      -1.80665302
H        1.26772172      -0.84123749      -3.17738904
H        1.44364662      -1.86270129      -1.85408525
H        0.45427570      -0.50527970      -1.75303304
N       -0.31845468       2.88641929      -0.79503603
H        0.48058734       3.05320875      -1.39137639
H       -0.55341777       1.88595763      -0.83694299
H       -0.07226047       3.09983363       0.16770239
H       -1.15694561       3.40186262      -1.07253957
N        0.27784428      -2.91158905       0.90330270
H       -0.49701615      -3.01134418       1.54322243
H        1.08843753      -3.48045996       1.14333343
H       -0.03521429      -3.11654687      -0.04466518
H        0.58304432      -1.92864096       0.90162307
N       -1.18434430       0.99990586       2.26630306
H       -1.44471939       0.77119153       3.21202263
H       -1.72825448       1.81032330       1.91993984
H       -0.19350602       1.24382317       2.19813056
H       -1.37056132       0.19574636       1.63558286
