44
Properties=species:S:1:pos:R:3 energy:=T -113.460566972093=T gnorm:=T 0.000877457250=T xtb:=T 6.4.0=T (d4b70c2)=T pbc="F F F"
S        3.17415717       1.63427566       0.12893403
O        2.85240753       3.05016759       0.13044094
O        3.77476989       1.16411147       1.36264526
O        2.05970716       0.80748528      -0.31085827
O        4.27838321       1.41464119      -1.03200359
H        5.07499487       1.89628417      -0.78167528
S       -1.20738366       0.69010667       2.11059284
O       -0.62362878       0.18681248       0.85592700
O       -2.40057469      -0.04137544       2.48419099
O       -0.22227108       0.84856129       3.14699791
O       -1.69369297       2.19796277       1.77256508
H       -2.35975956       2.13024826       1.06146283
S        0.27279554      -3.28457131       0.01616262
O       -0.48653009      -3.30936354       1.25480514
O       -0.59068408      -3.10291825      -1.14383409
O        1.40390719      -2.37748230       0.03421982
O        0.95876515      -4.73610016      -0.13375742
H        0.27863422      -5.41203094      -0.04344777
S       -2.14324686       1.25105583      -1.98361577
O       -0.86347999       1.67510288      -2.55285092
O       -2.20847793      -0.20026026      -1.84955104
O       -2.51355641       1.98380308      -0.79947818
O       -3.27151055       1.65691473      -3.05945845
H       -3.08495176       1.21624657      -3.89547007
N        1.89073326      -0.66346005       2.16304331
H        1.56476130      -1.12237070       1.30555151
H        2.18545995      -1.36696862       2.82248087
H        2.66945412      -0.03508424       1.91773581
H        1.12381677      -0.10217035       2.55249656
N        0.48258942      -0.64882004      -1.76593236
H        1.48477835      -0.79198493      -1.72260726
H        0.17926193      -0.37058830      -0.83336233
H        0.22993685       0.09890469      -2.40783058
H        0.00179795      -1.52186567      -1.98525546
N       -2.63691742      -1.75657838       0.43724231
H       -1.87603321      -2.39937261       0.69022928
H       -2.72794984      -1.08580216       1.21701590
H       -2.36696179      -1.23203593      -0.40171448
H       -3.49460049      -2.25958283       0.27540622
N        0.16650939       2.80413817      -0.21005032
H       -0.10691704       2.74034996      -1.19070754
H        1.15517766       3.08297644      -0.11703738
H       -0.45296808       3.42387699       0.29438370
H        0.06929739       1.86676082       0.18596866
