44
Properties=species:S:1:pos:R:3 energy:=T -113.448135384022=T gnorm:=T 0.000915554021=T xtb:=T 6.4.0=T (d4b70c2)=T pbc="F F F"
S        3.46031469      -2.57329972       0.20105869
O        3.95467409      -1.21813426       0.03085400
O        2.85351881      -2.81118922       1.49730562
O        2.61723113      -3.00828286      -0.90711676
O        4.73885526      -3.54731914       0.09896907
H        5.35616087      -3.31647587       0.80206937
S       -3.57125176       2.77278665       0.14482423
O       -3.48312528       1.38745396      -0.29261791
O       -3.17954704       2.90354992       1.54629459
O       -2.91202022       3.71542189      -0.73089893
O       -5.12136246       3.19442237       0.05777199
H       -5.64204306       2.60808415       0.61639089
S        1.56078214       0.90984612       0.89351770
O        0.89376614      -0.38038443       0.98357204
O        1.79127556       1.31863421      -0.49871084
O        0.87475545       1.95089880       1.65102014
O        2.97794820       0.75922997       1.57281695
H        3.44887954       0.01942410       1.11446277
S       -1.47906691      -0.91005025      -1.23963675
O       -1.70997650      -1.16553728       0.19327038
O       -0.76411127       0.34284740      -1.47044437
O       -0.84922760      -2.03462924      -1.89474932
O       -2.91059191      -0.73992749      -1.89227215
H       -3.31775703       0.04812954      -1.46576845
N        1.74779804      -0.78718447      -2.16482775
H        0.78418865      -1.05650097      -2.35421402
H        2.22564332      -0.51164631      -3.00791367
H        1.73933528       0.00171158      -1.48621543
H        2.22265600      -1.58916846      -1.72129248
N       -0.34927834       2.92920355      -0.68957822
H        0.04665459       2.92283286       0.25060093
H       -0.49876742       1.94569177      -0.96041992
H       -1.27059775       3.39930031      -0.70959382
H        0.31153097       3.34284253      -1.32967445
N        0.27768687      -2.98439695       0.60554964
H       -0.38822186      -2.19645323       0.59185197
H       -0.13408301      -3.79802583       1.03480591
H        0.53690017      -3.18125312      -0.35694184
H        1.13873167      -2.70684053       1.09998864
N       -1.59844934       0.80545803       2.05134837
H       -0.64284135       1.18028369       2.06680095
H       -1.80233553       0.31953224       2.90997555
H       -2.26362052       1.58821950       1.90341669
H       -1.67101128       0.15089448       1.25435000
