44
Properties=species:S:1:pos:R:3 energy:=T -113.446911466897=T gnorm:=T 0.000742735371=T xtb:=T 6.4.0=T (d4b70c2)=T pbc="F F F"
S        1.05147620       1.77361735      -1.35803495
O        0.05716516       1.83002072      -0.28792314
O        1.61426111       0.42753266      -1.52996463
O        0.56991361       2.30757201      -2.61661825
O        2.24982377       2.70621760      -0.90806410
H        2.56565396       2.37295321      -0.03395517
S        3.38920552       0.33207940       1.83469532
O        4.20431472      -0.16953344       0.75185249
O        2.69357931       1.57269063       1.51837208
O        2.49386682      -0.66941021       2.40493092
O        4.39125230       0.66849387       3.05491455
H        5.11231966       1.20899623       2.71410720
S       -0.84879782      -1.74687838      -1.09753238
O       -0.32239098      -1.19963474       0.14247446
O       -1.55223040      -0.71396951      -1.90212782
O        0.14762915      -2.42614088      -1.90232164
O       -1.92560522      -2.82122180      -0.70536891
H       -2.46411191      -2.47839707       0.06313085
S       -3.63030552      -0.45071407       1.61383964
O       -4.51136044       0.08554204       0.58510664
O       -3.23060499      -1.82364051       1.36427531
O       -2.52978587       0.44555235       1.92412331
O       -4.48830850      -0.48023167       2.98246109
H       -5.20806980      -1.11064987       2.86864169
N        0.24374896      -0.15144309      -3.72917790
H        0.44099300       0.84550158      -3.54654594
H        0.01905111      -0.33741292      -4.69290995
H        1.03605216      -0.69474580      -3.40706058
H       -0.54592328      -0.40691050      -3.08795549
N        2.26351212      -1.78206757      -0.14849696
H        2.03289425      -1.74681842       0.84208784
H        2.00859815      -0.85910162      -0.54592310
H        3.26249834      -1.90447416      -0.25065048
H        1.71061272      -2.48189582      -0.63367396
N        0.08397582       0.55688254       2.18054110
H       -0.43461316       1.05823823       2.88640626
H        0.32506129       1.17400446       1.39876126
H        0.95259964       0.14284891       2.53720890
H       -0.50894636      -0.17751859       1.79417499
N       -2.55470529       1.44796273      -0.62700214
H       -2.61888604       2.22210909      -1.26814763
H       -2.00094593       1.70347385       0.18392955
H       -3.46946035       1.10307025      -0.29252301
H       -2.07500699       0.64745091      -1.07405729
