44
Properties=species:S:1:pos:R:3 energy:=T -113.447251051833=T gnorm:=T 0.000544660063=T xtb:=T 6.4.0=T (d4b70c2)=T pbc="F F F"
S       -0.37770935      -0.43074700      -1.99405374
O       -1.16630799      -0.83351741      -0.83366056
O        0.25469436       0.88279010      -1.81419467
O        0.58646736      -1.43839792      -2.39170719
O       -1.40944082      -0.28489553      -3.19001104
H       -2.17811568       0.21899946      -2.83831219
S       -3.31060295       2.26253670      -1.16989596
O       -2.30080702       3.05729447      -1.82725433
O       -3.41482206       0.90228159      -1.67628266
O       -3.21570925       2.30450307       0.29031350
O       -4.73043127       2.97205204      -1.46030785
H       -4.79346261       3.14914545      -2.40541540
S        3.72052793      -1.78207017       1.08429769
O        2.71215396      -2.01656245       2.11048146
O        3.30739808      -2.37444430      -0.19683791
O        4.16226865      -0.42174897       0.95219020
O        5.03429666      -2.58914204       1.55026036
H        4.78039038      -3.47364020       1.83393544
S        0.17147887       0.18501793       2.14706402
O       -0.68584488      -1.00828487       2.12885122
O        0.93147210       0.30370142       0.89023948
O       -0.54851551       1.38541326       2.48439644
O        1.25018633      -0.03259092       3.28476644
H        1.89815473      -0.71033686       2.97916647
N       -0.45979319       2.65425528       0.08666601
H       -0.45429232       3.52270125      -0.42966301
H       -0.26501024       1.88013313      -0.57659331
H        0.21160197       2.62424090       0.84375145
H       -1.39920538       2.50913687       0.46520460
N       -3.03912615      -0.27579169       0.96069554
H       -3.82648520      -0.70734255       1.41704584
H       -2.96076466      -0.56700250      -0.01289088
H       -3.14364082       0.75187686       0.92859997
H       -2.14887546      -0.51741442       1.43291182
N        0.67737182      -2.48860812       0.26831757
H        1.66193285      -2.65789851       0.00501722
H        0.47825584      -2.89040459       1.17468035
H        0.56795486      -1.47439394       0.36326198
H        0.04119829      -2.80224635      -0.45233337
N        2.69495445       0.04874572      -1.29439477
H        2.20956744      -0.72556697      -1.75677540
H        3.65141298      -0.20625106      -1.06946628
H        2.62514935       0.86999729      -1.87874126
H        2.20007358       0.22447653      -0.41332329
