44
Properties=species:S:1:pos:R:3 energy:=T -113.444883388440=T gnorm:=T 0.000766452580=T xtb:=T 6.4.0=T (d4b70c2)=T pbc="F F F"
S        0.58655950       0.86042446      -3.68933611
O        0.43547637       1.77817097      -2.56055425
O        1.76582221       0.02801152      -3.56521079
O       -0.64333285       0.14268463      -3.96452304
O        0.81104106       1.77066578      -5.00164952
H        1.74404050       2.00188429      -5.06397437
S        0.35668862       2.67535207       0.60883052
O        1.73854226       2.22897254       0.77375268
O       -0.51273082       1.55808480       0.20454016
O       -0.16785793       3.39683401       1.74053990
O        0.33496861       3.69606098      -0.61277626
H        0.47691521       3.18935506      -1.43947153
S       -1.98835088      -1.81174336       0.21230005
O       -0.69763245      -1.70330888      -0.44698705
O       -2.03351930      -2.93601161       1.13550259
O       -2.50789688      -0.57301999       0.73806615
O       -3.05314013      -2.15513649      -0.97918295
H       -2.89293687      -3.05313732      -1.28994467
S        1.95774788      -0.88230493       2.41779173
O        2.75622512      -1.46038761       1.33921984
O        0.58395726      -0.63167249       1.93837280
O        1.97925987      -1.65849132       3.62888050
O        2.55187975       0.54251860       2.77849800
H        2.33119746       1.20525854       2.08199851
N       -2.12331364       0.69940796      -1.82862743
H       -2.61137194      -0.11306330      -1.46870478
H       -1.45118430       1.02437983      -1.11498996
H       -1.58164236       0.44127603      -2.68054776
H       -2.76383282       1.44776053      -2.04429292
N       -1.28680183       1.05296538       2.69444016
H       -1.98019427       0.78952052       1.99756800
H       -0.99859113       2.02451734       2.53557873
H       -1.61651916       0.89306399       3.63262687
H       -0.46272186       0.44590934       2.47952980
N        0.55315542      -3.33329970       1.73231871
H       -0.46521037      -3.15805579       1.60933877
H        1.03384735      -2.79267069       1.01653402
H        0.86795303      -2.96330877       2.63096706
H        0.76287819      -4.31608254       1.64506841
N        1.65223153      -0.07783652      -0.77711785
H        0.69350660      -0.33872832      -0.55040012
H        1.76759340       0.90080564      -0.51042348
H        2.27786787      -0.64602733      -0.20391110
H        1.81942675      -0.18959784      -1.77963800
