44
Properties=species:S:1:pos:R:3 energy:=T -113.463886725846=T gnorm:=T 0.000753065982=T xtb:=T 6.4.0=T (d4b70c2)=T pbc="F F F"
S        2.05255875      -0.46682484       0.66710088
O        2.66560242      -1.42509134      -0.23172789
O        0.71902719      -0.07294349       0.18963732
O        2.05230201      -0.85834752       2.06100055
O        2.92937052       0.87368179       0.65458267
H        2.86265933       1.29702055      -0.23731148
S       -2.26555357       0.12076917       2.48415220
O       -1.96905077       1.54278829       2.25041510
O       -1.02884114      -0.65940519       2.57426889
O       -3.20851021      -0.12933408       3.52108135
O       -2.94512949      -0.31950055       1.07200533
H       -2.75421817      -1.25056627       0.84528813
S        1.14037868       2.65863926      -1.60563663
O        0.74361249       2.86946027      -0.22034092
O        2.41489727       1.94879074      -1.72211073
O        0.10325960       2.08658619      -2.43070064
O        1.38533327       4.11802236      -2.24073894
H        2.13571431       4.53216036      -1.80071856
S       -1.36460190      -2.30806700      -1.42167276
O        0.00478708      -2.80246026      -1.46952869
O       -2.00804911      -2.60199231      -0.14895677
O       -1.47757542      -0.92827272      -1.84996269
O       -2.19315313      -3.12020566      -2.54121990
H       -2.36546057      -4.01276139      -2.22271744
N        1.25926464      -0.56881836      -2.48360120
H        0.26849474      -0.46737888      -2.24095521
H        1.70034372       0.35180076      -2.45828752
H        1.69350207      -1.15183515      -1.75881919
H        1.34227547      -1.00717528      -3.38803626
N       -1.68407308       1.40299036      -0.49216956
H       -2.03060701       1.77174538       0.39423116
H       -0.84171491       0.86172715      -0.28914464
H       -2.36056059       0.76104503      -0.89067374
H       -1.43336465       2.12965763      -1.15417785
N        0.20917495      -2.70359760       1.33860464
H       -0.42435051      -3.48339811       1.43695864
H       -0.27346996      -1.84358718       1.66077275
H        1.05769237      -2.80322098       1.88085073
H        0.44070297      -2.58248606       0.34987767
N        0.69885383       1.65927255       2.39649943
H        1.00738256       1.97674170       1.47592625
H       -0.34145131       1.65572005       2.40419709
H        1.01555533       0.69507922       2.51901604
H        1.06698994       2.25357146       3.12274236
