44
Properties=species:S:1:pos:R:3 energy:=T -113.444795977858=T gnorm:=T 0.000904796771=T xtb:=T 6.4.0=T (d4b70c2)=T pbc="F F F"
S       -3.58569649      -1.66510644       0.61555614
O       -3.96524870      -0.41568052      -0.01908557
O       -3.57880427      -2.79453438      -0.30484130
O       -2.37219860      -1.59081863       1.41157534
O       -4.73359413      -1.97254682       1.70961703
H       -5.58526079      -1.96102728       1.25903364
S        2.30263683      -0.88542140      -0.67083897
O        2.07951944       0.47870766      -1.16747609
O        1.20720400      -1.36586800       0.16825624
O        2.64238654      -1.79246582      -1.74529223
O        3.58351815      -0.79993597       0.26935694
H        3.37885668      -0.13736154       0.96099443
S       -1.21158076       0.66619949      -1.73533813
O       -0.94778785      -0.64057157      -2.39533271
O       -0.96349354       0.59626919      -0.30160096
O       -0.49479702       1.73046194      -2.40357846
O       -2.74395421       0.95825848      -1.91368820
H       -3.25497995       0.43518838      -1.23143844
S        1.98031864       2.12810849       2.77988528
O        1.88382313       3.45937982       2.20376607
O        0.86649760       1.80298570       3.65750722
O        2.22998758       1.09408903       1.79098411
O        3.30951597       2.11809988       3.69185917
H        3.23557436       2.82570149       4.34204102
N       -0.29511884      -0.19096849       2.22477815
H        0.06939533       0.53439880       2.86181933
H       -1.08103432       0.15838962       1.68254638
H        0.43859699      -0.44542423       1.55466911
H       -0.60367791      -1.01152796       2.72632162
N        1.33283558      -0.21847359      -3.60123542
H        1.35103260      -0.31558416      -4.60357858
H        0.38014310      -0.42449319      -3.20710594
H        1.98556661      -0.85514813      -3.12521231
H        1.54148103       0.72781342      -3.30191041
N       -0.93076812      -2.70261988      -0.65660783
H       -0.87560832      -1.89153084      -1.29673828
H       -0.28399131      -3.42133311      -0.93792975
H       -0.69287471      -2.35480311       0.26585038
H       -1.91766477      -3.00641019      -0.62819149
N        0.86532857       2.65632086      -0.18507705
H        0.79011089       3.22707377      -1.01418435
H       -0.05517274       2.30278573       0.05964421
H        1.43018447       1.81594347      -0.40633512
H        1.28879329       3.14348000       0.61655582
