44
Properties=species:S:1:pos:R:3 energy:=T -113.440919433621=T gnorm:=T 0.000837255692=T xtb:=T 6.4.0=T (d4b70c2)=T pbc="F F F"
S        0.75603395      -0.83039854      -2.02232825
O        1.33498430       0.51489637      -2.05114665
O        0.39858958      -1.22747575      -0.65566096
O       -0.34129853      -0.99204911      -2.94638495
O        1.89004395      -1.84518616      -2.47804812
H        2.45413917      -2.05671574      -1.70679517
S       -3.91973359       1.85914317      -1.23793224
O       -3.20416743       2.59335140      -2.27082516
O       -4.42847381       0.57689292      -1.71071357
O       -3.16488301       1.74486012      -0.00462065
O       -5.19959980       2.74143326      -0.83739188
H       -5.75623274       2.84999079      -1.61685216
S        3.79731119      -2.05906343       1.30149618
O        4.32698126      -0.75977022       1.68782621
O        3.10839071      -2.73260927       2.39613254
O        3.00580982      -2.00464302       0.08721352
O        5.05327922      -2.98038340       0.91337259
H        5.62279368      -3.06789806       1.68614537
S       -0.52737093       1.20380658       1.90359869
O        0.31164335       2.17407617       1.19616387
O       -1.04154115       0.17751470       0.98950326
O        0.12207871       0.63405910       3.06021146
O       -1.80696594       1.98085285       2.43490757
H       -2.46342861       2.04154170       1.71161448
N       -0.72722432       2.17073484      -1.30056522
H       -0.01570126       1.69128401      -1.86081802
H       -1.55947327       2.43638332      -1.85210333
H       -1.03943630       1.52979607      -0.57112902
H       -0.33130773       2.97674407      -0.83488602
N       -2.42492901      -1.08783618      -1.12903960
H       -2.71412740      -2.02887706      -0.91249019
H       -3.24491456      -0.50000864      -1.38720723
H       -1.97053397      -0.66294215      -0.31565490
H       -1.74361736      -1.09936315      -1.90081173
N        0.58812181      -1.91169364       2.08277265
H       -0.10753880      -2.57894222       2.37759961
H        1.54732093      -2.27218615       2.26865117
H        0.50254987      -1.73428634       1.07788033
H        0.44702018      -1.01800150       2.57405168
N        2.50192233       0.72737577       0.37908266
H        1.93127021      -0.07341027       0.10805902
H        2.85307035       1.14132629      -0.47449685
H        1.90191344       1.38893104       0.88143233
H        3.27723151       0.36874543       0.96018672
