81
  -185.43716785
   Na          -6.21938870          -6.32180867          -3.71890861
   Cl          -6.35278670          -6.50085882          -1.22894927
   Cl          -6.56198991          -3.84982223          -4.06423492
   Na          -6.38177310          -3.88576327          -1.34493890
   Na          -6.46410593          -1.27747386          -3.76572880
   Cl          -6.70133611          -1.31917531          -1.13592460
   Cl          -6.62673328           1.29347150          -4.01707197
   Na          -6.47157859           1.25442506          -1.35777818
   Na          -6.46455400           3.86289227          -3.84905387
   Cl          -6.58204580           3.85287803          -1.13827116
   Cl          -6.45206401           6.46187914          -4.03768635
   Na          -6.26883134           6.32422082          -1.54528002
   Cl          -3.74423141          -6.64565846          -4.11235698
   Na          -3.75570576          -6.54459370          -1.39928644
   Na          -3.83739410          -3.91075721          -3.93583806
   Cl          -3.76511048          -3.94535194          -1.21770181
   Cl          -3.87131418          -1.29867095          -3.89010685
   Na          -3.99839161          -1.32906026          -0.95908628
   Na          -3.89826419           1.29247294          -3.78746197
   Cl          -3.87485260           1.33876447          -1.06920490
   Cl          -3.85914786           3.90181105          -3.99215395
   Na          -3.84726739           3.95949524          -1.25596074
   Na          -3.85490262           6.50887727          -3.91444405
   Cl          -3.79302975           6.70691300          -1.20925600
   Na          -1.16445957          -6.51258001          -3.92339585
   Cl          -1.16562513          -6.73067022          -1.27009158
   Cl          -1.21433101          -3.91489679          -4.17733674
   Na          -1.17326893          -4.01781524          -1.43613464
   Na          -1.24416940          -1.28136267          -3.87414656
   Cl          -1.20851847          -1.37161777          -1.20460209
   Cl          -1.25820901           1.34269265          -3.94884276
   Na          -1.22808462           1.42756810          -1.11520292
   Na          -1.25864949           3.97958318          -3.91245072
   Cl          -1.21443169           4.04595750          -1.17233274
   Cl          -1.28143661           6.70817674          -4.14977490
   Na          -1.21355291           6.62321606          -1.49260219
   Cl           1.41697680          -6.65408870          -4.14867198
   Na           1.41030600          -6.56048446          -1.49155477
   Na           1.38388686          -3.92743628          -3.93665281
   Cl           1.42738876          -3.97760104          -1.19120280
   Cl           1.39300119          -1.28817638          -3.96202716
   Na           1.43356037          -1.35919893          -1.11446539
   Na           1.35413148           1.32664071          -3.92440263
   Cl           1.47617354           1.39956390          -1.21395612
   Cl           1.34319678           3.96152905          -4.17866716
   Na           1.37186078           4.04576440          -1.43686968
   Na           1.29071150           6.56243935          -3.97084392
   Cl           1.37876564           6.76942797          -1.31755826
   Na           3.99249206          -6.45807739          -3.97329955
   Cl           3.99938924          -6.61576612          -1.26564319
   Cl           3.99263578          -3.84912827          -4.10179610
   Na           4.04023837          -3.86541864          -1.36835738
   Na           4.02456280          -1.24766074          -3.96624707
   Cl           4.08572126          -1.22234564          -1.20623048
   Cl           3.98819251           1.35204476          -4.24235776
   Na           4.10804429           1.36819450          -1.52842294
   Na           3.96211797           3.97735677          -4.12905417
   Cl           3.99225602           3.97374970          -1.37222334
   Cl           3.86543016           6.69837301          -4.26524767
   Na           3.94654984           6.58566485          -1.55834895
   Cl           6.59256597          -6.40622091          -4.15432586
   Na           6.46308384          -6.24902420          -1.66064821
   Na           6.59900114          -3.81275955          -4.00605539
   Cl           6.77782637          -3.76829391          -1.29442357
   Cl           6.75543509          -1.23559007          -4.20890259
   Na           6.66628912          -1.19304741          -1.55862358
   Na           6.59147052           1.33697585          -4.03253772
   Cl           6.80747607           1.39499612          -1.37009484
   Cl           6.68789897           3.91329884          -4.28596006
   Na           6.59870833           3.97085579          -1.58149957
   Na           6.35100912           6.39473012          -3.94597263
   Cl           6.54897299           6.56708333          -1.45575425
    O           1.39217777          -0.63218121           1.00268731
    H           1.96896374          -0.35939665           1.71690769
    H           1.42222010           0.10810234           0.36562341
    O          -1.05451788           0.73144394           0.95129861
    H          -0.65620055           0.38058354           1.75105515
    H          -0.95426963          -0.00051984           0.31670532
    O          -3.35085410          -1.04392481           1.03879669
    H          -3.26958328          -0.09292522           0.89597428
    H          -2.57749034          -1.39599167           0.57878067
