81
  -185.43370800
   Na          -6.39539811          -6.33020855          -3.95164393
   Cl          -6.57138244          -6.49945926          -1.45969297
   Cl          -6.70690363          -3.85059029          -4.29808882
   Na          -6.60599139          -3.89742252          -1.58578553
   Na          -6.57829732          -1.26899590          -4.03066434
   Cl          -6.79863425          -1.32773084          -1.38302863
   Cl          -6.73990739           1.29233111          -4.26698966
   Na          -6.66846628           1.26751894          -1.60058884
   Na          -6.54776959           3.87212492          -4.07597499
   Cl          -6.75337106           3.85032341          -1.37853848
   Cl          -6.51151500           6.47031662          -4.23924857
   Na          -6.39101066           6.32272229          -1.74105915
   Cl          -3.90883663          -6.66020278          -4.28171197
   Na          -3.97890696          -6.54033583          -1.57373892
   Na          -3.99191601          -3.93588626          -4.15426232
   Cl          -3.99147070          -3.92763160          -1.40124152
   Cl          -3.97402977          -1.32478547          -4.23006385
   Na          -4.07670223          -1.30111030          -1.47292426
   Na          -4.00686730           1.28669551          -4.02644113
   Cl          -4.09186103           1.28130745          -1.32159835
   Cl          -3.94135588           3.88370989          -4.19529808
   Na          -3.99814395           3.91042469          -1.43066070
   Na          -3.91096536           6.48957574          -4.04886794
   Cl          -3.92463151           6.66702042          -1.35081056
   Na          -1.33706583          -6.55778375          -4.02604253
   Cl          -1.39275657          -6.74343927          -1.36167728
   Cl          -1.35641403          -3.95264092          -4.22291565
   Na          -1.40170208          -4.05348834          -1.51332145
   Na          -1.35793915          -1.31245339          -3.91922293
   Cl          -1.41199762          -1.40886083          -1.17767221
   Cl          -1.36437808           1.28387133          -3.97469868
   Na          -1.46835081           1.38367326          -1.06528310
   Na          -1.34014174           3.93292208          -3.98313100
   Cl          -1.38331450           3.99869191          -1.27838811
   Cl          -1.33176872           6.66604025          -4.21006678
   Na          -1.33400254           6.57187895          -1.54337182
   Cl           1.24069134          -6.72430479          -4.21756782
   Na           1.18882596          -6.64573580          -1.56890812
   Na           1.24615118          -4.00226969          -4.05052773
   Cl           1.22787896          -4.04552251          -1.27823322
   Cl           1.26520322          -1.36694041          -4.04377135
   Na           1.29586333          -1.33487405          -1.29430670
   Na           1.24590969           1.26907170          -3.89337030
   Cl           1.27227113           1.28415816          -1.19625576
   Cl           1.26553932           3.88483082          -4.18021667
   Na           1.20969591           3.94189762          -1.40455726
   Na           1.23292918           6.48208268          -3.95196903
   Cl           1.25318456           6.67613977          -1.30418810
   Na           3.82223811          -6.56477291          -3.99929907
   Cl           3.76303148          -6.72568927          -1.28731234
   Cl           3.85108845          -3.95599300          -4.12916191
   Na           3.88636721          -4.00656665          -1.40878673
   Na           3.91608475          -1.34832650          -3.96526411
   Cl           3.90762785          -1.39472970          -1.22237768
   Cl           3.88327632           1.24362405          -4.11320221
   Na           3.92323349           1.23166765          -1.33898448
   Na           3.88121670           3.87156853          -4.03199773
   Cl           3.83077465           3.84336723          -1.29543214
   Cl           3.81777377           6.59194466          -4.17709088
   Na           3.82469297           6.45482640          -1.45963408
   Cl           6.41799684          -6.54370442          -4.10719443
   Na           6.25585413          -6.41247954          -1.61323204
   Na           6.46397454          -3.94280529          -3.94987549
   Cl           6.59602493          -3.93712601          -1.24216853
   Cl           6.64178085          -1.36833783          -4.11195109
   Na           6.50218961          -1.34311544          -1.45164208
   Na           6.47786150           1.20600719          -3.87171397
   Cl           6.63244191           1.23354528          -1.21644940
   Cl           6.61215832           3.77325003          -4.13392150
   Na           6.43878936           3.81671748          -1.42186628
   Na           6.28816181           6.25602235          -3.79440123
   Cl           6.42374564           6.41178107          -1.30120769
    O           0.91061761          -1.80029460           0.78890130
    H           0.04705917          -1.69151950           0.35988129
    H           1.21526044          -2.64973504           0.43577170
    O           1.32428526           0.80954165           1.92014106
    H           1.45728060           1.07907859           0.99796116
    H           1.40029305          -0.15221105           1.89908255
    O          -1.28931686           0.93997710           1.01539860
    H          -1.22482607           0.07411935           0.59768340
    H          -0.52034858           0.97533513           1.60876149
