81
  -185.43725420
   Na          -6.28224476          -6.28953036          -3.70050494
   Cl          -6.43322024          -6.39274752          -1.20362954
   Cl          -6.61272645          -3.81953923          -4.11708274
   Na          -6.47745575          -3.80711615          -1.40793893
   Na          -6.49801112          -1.22852735          -3.98142248
   Cl          -6.65550117          -1.22896325          -1.31839627
   Cl          -6.63640431           1.35512163          -4.16863021
   Na          -6.49746544           1.34021242          -1.51537688
   Na          -6.46021122           3.93146464          -3.97132083
   Cl          -6.59867023           3.91029746          -1.25741418
   Cl          -6.42986330           6.53072690          -4.12488695
   Na          -6.26137992           6.38186187          -1.63243065
   Cl          -3.80993361          -6.63067481          -4.04663026
   Na          -3.82596200          -6.41324653          -1.34558696
   Na          -3.87832792          -3.89361081          -3.98647106
   Cl          -3.86895719          -3.79526343          -1.25002284
   Cl          -3.91014917          -1.27157942          -4.33443132
   Na          -3.94429264          -1.23194716          -1.60522167
   Na          -3.90173537           1.33412352          -3.99169339
   Cl          -3.90585070           1.33583247          -1.24239615
   Cl          -3.85514979           3.95010358          -4.09551031
   Na          -3.86342259           3.96636323          -1.36444670
   Na          -3.83149906           6.55629279          -3.97795880
   Cl          -3.78581035           6.70793649          -1.26628619
   Na          -1.23718326          -6.49783913          -3.76503570
   Cl          -1.25836181          -6.66604128          -1.11224677
   Cl          -1.27403483          -3.92386879          -4.03550624
   Na          -1.26666220          -3.95131352          -1.00686305
   Na          -1.25506723          -1.27548415          -4.21420645
   Cl          -1.26020427          -1.25529030          -1.58210500
   Cl          -1.27655038           1.37059145          -4.05456570
   Na          -1.27666254           1.39110601          -1.04117297
   Na          -1.25100709           3.99369106          -3.93505035
   Cl          -1.23760025           4.00823769          -1.17479558
   Cl          -1.25469864           6.72617848          -4.15893256
   Na          -1.20476294           6.59236749          -1.50672922
   Cl           1.32280795          -6.69181144          -4.07480134
   Na           1.31641334          -6.51638303          -1.42394195
   Na           1.31806312          -3.94471534          -3.94072193
   Cl           1.37644617          -3.92914286          -1.21532747
   Cl           1.37882461          -1.29827314          -4.23151924
   Na           1.45301986          -1.33282521          -1.42503283
   Na           1.33296501           1.32124723          -3.99442058
   Cl           1.39992467           1.38771837          -1.27698505
   Cl           1.34630532           3.96703888          -4.21123254
   Na           1.36051650           4.02640343          -1.47271868
   Na           1.31749989           6.56337661          -3.98093563
   Cl           1.38196058           6.73686202          -1.32195652
   Na           3.89445589          -6.49804781          -3.93365785
   Cl           3.91256215          -6.60894458          -1.21885081
   Cl           3.92961487          -3.89697516          -4.13468108
   Na           3.99827040          -3.87470117          -1.39237681
   Na           4.01423060          -1.28181611          -4.13490780
   Cl           4.06491561          -1.24628828          -1.40475302
   Cl           3.97068197           1.33711224          -4.27508760
   Na           4.06602197           1.34264135          -1.53464588
   Na           3.96665706           3.95821317          -4.14763664
   Cl           3.97863425           3.94118123          -1.39664432
   Cl           3.89054297           6.68621956          -4.26244754
   Na           3.95584140           6.55039946          -1.55849870
   Cl           6.49364894          -6.47485301          -4.13817108
   Na           6.38008244          -6.28695168          -1.64629844
   Na           6.53599583          -3.87083791          -4.03147498
   Cl           6.74136832          -3.80672789          -1.32558318
   Cl           6.73786365          -1.29266845          -4.29488196
   Na           6.64886995          -1.23612185          -1.63711569
   Na           6.56974704           1.28564669          -4.06015567
   Cl           6.78840429           1.34381032          -1.40594584
   Cl           6.68950437           3.86995043          -4.29774938
   Na           6.58977387           3.91641581          -1.59068175
   Na           6.37257369           6.35146669          -3.93701089
   Cl           6.55622335           6.51391160          -1.44617554
    O          -0.83657675          -2.82896964           0.96502933
    H          -0.87117149          -2.30822609           0.14402793
    H           0.10057786          -2.81463129           1.18493757
    O           1.24274980          -0.86813275           0.73697041
    H           0.72695520          -0.54082503           1.47939228
    H           1.32571580          -0.07872684           0.16958690
    O          -1.30033506           0.21834649           1.01333365
    H          -1.59672902          -0.45376319           1.63273699
    H          -1.26197840          -0.26599511           0.16625351
