81
  -185.43374523
   Na          -6.36919346          -6.23409414          -3.82522026
   Cl          -6.52119642          -6.36178095          -1.33358322
   Cl          -6.70510569          -3.76029420          -4.21834692
   Na          -6.57944166          -3.76648681          -1.50564040
   Na          -6.57092333          -1.18541965          -4.02120133
   Cl          -6.75398823          -1.17520280          -1.36175371
   Cl          -6.71418241           1.38938027          -4.27413353
   Na          -6.57101323           1.39382042          -1.61949916
   Na          -6.53203080           3.96846484          -4.10289457
   Cl          -6.68021092           3.97179795          -1.39336453
   Cl          -6.48974549           6.56452111          -4.27679233
   Na          -6.34053297           6.44488125          -1.78128982
   Cl          -3.89881474          -6.56952084          -4.20371164
   Na          -3.90808083          -6.38980420          -1.47422222
   Na          -3.96614467          -3.85512863          -4.07500741
   Cl          -3.97722697          -3.77264673          -1.35981012
   Cl          -3.97003059          -1.23308784          -4.26476764
   Na          -4.05581854          -1.18464719          -1.52816158
   Na          -3.99172924           1.37065741          -4.13088884
   Cl          -3.97169884           1.41715969          -1.36444913
   Cl          -3.92317906           3.97596768          -4.24165244
   Na          -3.95522080           4.04353565          -1.50109489
   Na          -3.89077390           6.58614254          -4.12720611
   Cl          -3.86076578           6.77118222          -1.42215864
   Na          -1.32306810          -6.48133347          -3.92867472
   Cl          -1.34638623          -6.74277486          -1.30770461
   Cl          -1.34688814          -3.88102649          -4.02744752
   Na          -1.35244375          -4.03588903          -1.15770482
   Na          -1.34225663          -1.25877114          -3.96935177
   Cl          -1.40518291          -1.18427792          -1.24357964
   Cl          -1.34899586           1.36659205          -4.27975522
   Na          -1.34189684           1.43537893          -1.56944772
   Na          -1.31871574           4.01927857          -4.13419599
   Cl          -1.33016233           4.04834010          -1.37487311
   Cl          -1.31312749           6.74552827          -4.31986437
   Na          -1.27851661           6.63873097          -1.66155889
   Cl           1.25150255          -6.63472286          -4.19207866
   Na           1.21569871          -6.48865117          -1.53303384
   Na           1.25123085          -3.91533388          -3.99351072
   Cl           1.32034001          -3.89012074          -1.26835061
   Cl           1.27772951          -1.27468492          -4.09668350
   Na           1.36499923          -1.20019886          -1.28954642
   Na           1.27324182           1.34679501          -4.07175015
   Cl           1.27718127           1.41871738          -1.35178513
   Cl           1.27861145           3.97711741          -4.31362510
   Na           1.28156603           4.05207171          -1.55288215
   Na           1.25851882           6.57523277          -4.09283304
   Cl           1.30301676           6.77204881          -1.44118204
   Na           3.82416913          -6.47869436          -4.00854970
   Cl           3.81178361          -6.59433471          -1.29498883
   Cl           3.86133929          -3.87284840          -4.19183540
   Na           3.94307812          -3.87248745          -1.46431503
   Na           3.92698922          -1.26718897          -4.08287141
   Cl           3.98115945          -1.25327023          -1.35060723
   Cl           3.89792034           1.33240388          -4.31528905
   Na           3.93325338           1.35130869          -1.55108191
   Na           3.89962524           3.95625966          -4.21777201
   Cl           3.89222205           3.96567367          -1.47917934
   Cl           3.83042109           6.68659192          -4.36339305
   Na           3.88124612           6.57191395          -1.65486990
   Cl           6.42372907          -6.46162691          -4.16796103
   Na           6.29325144          -6.28960483          -1.67613832
   Na           6.47092562          -3.86061759          -4.06169540
   Cl           6.66193927          -3.80955586          -1.35234147
   Cl           6.65774725          -1.28587523          -4.28254468
   Na           6.56174689          -1.22458026          -1.62629220
   Na           6.49426708           1.28883882          -4.07875714
   Cl           6.67822541           1.35790319          -1.42599842
   Cl           6.62223887           3.86268989          -4.35873834
   Na           6.49893121           3.92960842          -1.64799496
   Na           6.30973247           6.34597660          -4.02555819
   Cl           6.48122193           6.53078970          -1.53561043
    O          -1.33940444          -3.48769920           0.89328689
    H          -1.18338434          -3.18768442           1.80404069
    H          -1.71745711          -2.71827523           0.45001566
    O           0.86791862          -1.59113759           0.76105999
    H           0.05799558          -1.29416664           0.31352695
    H           0.96924988          -2.48979656           0.40553933
    O          -0.35665918          -2.22400743           3.17051064
    H           0.16213764          -1.79592957           2.46645830
    H           0.25727394          -2.80573401           3.62133744
