81
  -185.43204151
   Na          -6.32989364          -6.33873428          -3.90914905
   Cl          -6.48705107          -6.48931566          -1.41601898
   Cl          -6.66170366          -3.85978333          -4.26540129
   Na          -6.52195614          -3.89213256          -1.55674192
   Na          -6.54273756          -1.28633903          -4.01914968
   Cl          -6.72505998          -1.31228845          -1.36397649
   Cl          -6.71400911           1.28423710          -4.27131220
   Na          -6.58282872           1.26125736          -1.61372265
   Na          -6.55244862           3.86271703          -4.09017701
   Cl          -6.72414432           3.84150142          -1.38325671
   Cl          -6.53029269           6.46302316          -4.24439781
   Na          -6.40422181           6.32042553          -1.74891727
   Cl          -3.85114315          -6.65403082          -4.26987250
   Na          -3.88724039          -6.50777169          -1.55977627
   Na          -3.93291120          -3.93439014          -4.13945510
   Cl          -3.91357685          -3.89884089          -1.39298719
   Cl          -3.94379506          -1.31001592          -4.23602488
   Na          -4.00810811          -1.29411785          -1.48897381
   Na          -3.98985154           1.29019282          -4.11786011
   Cl          -3.98835642           1.31576716          -1.35307138
   Cl          -3.94431107           3.89780758          -4.21873470
   Na          -4.00248422           3.93683461          -1.47804617
   Na          -3.93391887           6.50408579          -4.08021641
   Cl          -3.92934295           6.66666953          -1.37239215
   Na          -1.26917807          -6.51718082          -4.01720114
   Cl          -1.31936984          -6.69253212          -1.36526552
   Cl          -1.31598150          -3.92298054          -4.25351266
   Na          -1.29743500          -3.94337916          -1.49456218
   Na          -1.30109358          -1.29804624          -4.00710580
   Cl          -1.37452342          -1.27677449          -1.26908563
   Cl          -1.34875221           1.32047627          -4.33259363
   Na          -1.37375224           1.33334722          -1.60709975
   Na          -1.33444416           3.95677976          -4.14401725
   Cl          -1.37931732           3.95709918          -1.37639585
   Cl          -1.35327641           6.68681204          -4.26922897
   Na          -1.35524767           6.55336765          -1.61318979
   Cl           1.30029338          -6.69076121          -4.26084188
   Na           1.26207192          -6.57489524          -1.60077841
   Na           1.29645176          -3.95696380          -4.06019385
   Cl           1.28835150          -3.99700878          -1.34222160
   Cl           1.30676662          -1.32132563          -4.13471836
   Na           1.35279705          -1.35988408          -1.22247009
   Na           1.29231057           1.29245847          -4.14374240
   Cl           1.23151024           1.37716582          -1.47970517
   Cl           1.27916399           3.95247102          -4.32081563
   Na           1.19896819           4.01015605          -1.59787470
   Na           1.22080857           6.54622882          -4.03495674
   Cl           1.22263021           6.70275998          -1.36990902
   Na           3.88092428          -6.50660058          -4.05416872
   Cl           3.84170412          -6.69238173          -1.35199222
   Cl           3.90469702          -3.90339236          -4.19748774
   Na           3.91031630          -3.95475671          -1.44384574
   Na           3.94522476          -1.29367581          -4.01064685
   Cl           3.98419168          -1.35456259          -1.32276442
   Cl           3.93081294           1.32290554          -4.09447778
   Na           3.99358470           1.21952938          -1.21889983
   Na           3.89124823           3.92535129          -4.04393495
   Cl           3.80548994           3.91525141          -1.27037213
   Cl           3.80935544           6.65858459          -4.18190427
   Na           3.80250512           6.53494095          -1.48618425
   Cl           6.48620573          -6.47088087          -4.18574921
   Na           6.31684998          -6.33757394          -1.69344294
   Na           6.50480516          -3.86761711          -4.01336388
   Cl           6.66538878          -3.86755958          -1.31111775
   Cl           6.69326663          -1.28665298          -4.19546640
   Na           6.55898037          -1.27667798          -1.53497622
   Na           6.51966279           1.27547488          -3.92011439
   Cl           6.70703452           1.31745241          -1.27341413
   Cl           6.61522609           3.86677158          -4.16435263
   Na           6.44465008           3.87296263          -1.47425359
   Na           6.28850481           6.34322343          -3.81110121
   Cl           6.38926551           6.46969911          -1.30929509
    O           3.22055617           1.63178070           0.76555990
    H           2.50757062           1.28852631           0.19688746
    H           3.37698356           2.51225895           0.38971303
    O           0.96631993          -0.89573578           0.82037624
    H           0.94264965          -0.28162949           1.57124644
    H           0.09635928          -0.82153882           0.40599556
    O           1.32796669           1.11614383           2.75623501
    H           1.82759539           0.68399656           3.45080020
    H           1.99939990           1.48439217           2.15561933
