22
Properties=species:S:1:pos:R:3 Free_Energy:=T -1513.343240=T Electronic_Energy:=T -1513.46076045=T pbc="F F F"
N       -0.30861900      -2.41444300       1.07373900
H       -0.85895500      -1.51733700       1.25106900
H       -0.32756600      -3.04323300       1.87106900
H       -0.72718000      -2.85363300       0.25440500
H        0.67192000      -2.12008800       0.83808500
N       -0.25908400       2.44543200       0.98773900
H       -0.72235700       2.02546500       1.79446000
H       -0.87827400       2.19446300       0.16936900
H       -0.16317400       3.45053700       1.09706000
H        0.67521700       1.98042500       0.89093100
S       -2.20937400       0.05164700      -0.23043800
O       -1.52804600      -0.06964800       1.11274500
O       -3.52603400      -0.54117100      -0.28557000
O       -2.06614500       1.44171200      -0.71916400
O       -1.30124000      -0.87612400      -1.20045900
H       -0.41790500      -0.44886000      -1.32443300
S        2.12971900      -0.01078200      -0.12684600
O        1.17497900       0.21091600      -1.23031300
O        2.06167000       1.01343400       0.92651800
O        2.10989700      -1.40405600       0.37316700
O        3.60589600       0.21201100      -0.74075000
H        3.74886000      -0.43509000      -1.44520900
