22
Properties=species:S:1:pos:R:3 Free_Energy:=T -1513.341544=T Electronic_Energy:=T -1513.45938027=T pbc="F F F"
N        0.37858300       2.55492800       0.74312700
H       -0.57197300       2.28487900       0.39399900
H        0.92871900       2.92799400      -0.02906800
H        0.32005300       3.22958800       1.50007900
H        0.84006200       1.64081000       1.05267100
N        0.06369700      -2.44306100       0.71720100
H       -0.09215300      -1.80636700       1.50340700
H        1.04811200      -2.29556000       0.36504500
H       -0.13636400      -3.40443300       0.97430400
H       -0.56481700      -2.09853300      -0.03258200
S        2.21499700      -0.08590500      -0.12945300
O        2.33394300      -1.54151400      -0.37109500
O        1.38568600       0.14654200       1.10536800
O        3.42773600       0.69998500      -0.19673700
O        1.29199600       0.52058500      -1.32164500
H        0.42012200       0.06286900      -1.33447500
S       -2.11052900       0.04643300      -0.06320700
O       -1.94877600       1.51074200      -0.18726100
O       -1.20471300      -0.68475500      -1.00237000
O       -2.07651600      -0.49664900       1.28823600
O       -3.61142100      -0.26328400      -0.57737300
H       -3.74267700       0.17401700      -1.43010100
