22
Properties=species:S:1:pos:R:3 Free_Energy:=T -1513.341956=T Electronic_Energy:=T -1513.46299337=T pbc="F F F"
N       -0.54808700       2.81593600      -0.02551400
H       -0.97628100       2.08236300      -0.64251700
H        0.44809300       2.48321100       0.10804700
H       -0.58758400       3.74427500      -0.43595700
H       -1.04084300       2.78564000       0.86651900
N        0.54809100      -2.81593500       0.02553700
H        0.97628100      -2.08235400       0.64253400
H       -0.44808700      -2.48321000      -0.10803600
H        1.04085500      -2.78565100      -0.86649300
H        0.58758500      -3.74426800       0.43599200
S        2.04231900       0.21304300       0.06361000
O        1.85584400       1.67976400       0.10685600
O        3.40212000      -0.26995700       0.01389100
O        1.20306900      -0.45315300       1.12854000
O        1.37143500      -0.30615900      -1.31860700
H        0.41980200      -0.02243800      -1.34972100
H       -0.41980600       0.02243800       1.34971900
S       -2.04232000      -0.21304300      -0.06361600
O       -1.20307100       0.45316800      -1.12853700
O       -3.40212400       0.26994800      -0.01389600
O       -1.85583600      -1.67976300      -0.10687500
O       -1.37144200       0.30615000       1.31860800
