22
Properties=species:S:1:pos:R:3 Free_Energy:=T -1513.339968=T Electronic_Energy:=T -1513.45540343=T pbc="F F F"
N        0.02980100       2.23180000       0.84958800
H        0.58275400       2.20030400      -0.02452900
H       -0.97917500       1.96267800       0.65486000
H        0.47625600       1.50403600       1.42614000
H        0.09151700       3.14297600       1.29371700
N        0.03615500      -2.24193100       0.85415500
H        0.34432400      -2.23064800      -0.12584400
H       -0.94176200      -1.85316000       0.92128000
H        0.11045100      -3.17256500       1.25301100
H        0.67577200      -1.56870000       1.31536000
S        2.23722900      -0.00044100      -0.21131000
O        1.66469200      -0.03136500       1.16462700
O        1.98683700      -1.23296200      -0.96622200
O        1.91920800       1.24596300      -0.92897400
O        3.83018900       0.04324200       0.09737400
H        4.30302500       0.03042200      -0.74632400
S       -2.50120200       0.00690900      -0.12755600
O       -3.56560900      -0.33561000      -1.04868800
O       -2.44932300       1.43588500       0.26665000
O       -2.28604900      -0.90253800       1.01976900
O       -1.06780100      -0.23438100      -0.93201200
H       -1.15842500       0.04620900      -1.85221000
