22
Properties=species:S:1:pos:R:3 Free_Energy:=T -1513.338130=T Electronic_Energy:=T -1513.45866150=T pbc="F F F"
N       -0.21296400      -2.10228000       1.58518700
H        0.68065600      -1.54812700       1.43428600
H       -0.16041400      -2.72788000       2.38311700
H       -0.94901200      -1.36815200       1.67932600
H       -0.43350200      -2.60437700       0.72354700
N        0.06684800       2.11355700       1.56469700
H        0.64416300       1.95888200       2.38754400
H       -0.70395800       1.39158800       1.51431200
H       -0.32046800       3.05337600       1.56154700
H        0.65349600       1.93693300       0.70439700
S       -2.01623000      -0.03672900      -0.34638700
O       -1.19437800      -1.16566100      -0.86132200
O       -3.42432100      -0.06987600      -0.64500700
O       -1.70946000       0.13780300       1.13021200
O       -1.43410800       1.28937900      -1.04133100
H       -0.45178100       1.22022900      -1.12361600
S        2.05218700       0.01430400      -0.29178000
O        1.69681300      -0.33640600       1.12316800
O        1.25177100       1.23321100      -0.67474200
O        3.46332600       0.09312400      -0.56655000
O        1.47570600      -1.16822800      -1.20170600
H        0.48552400      -1.13938100      -1.20474300
