22
Properties=species:S:1:pos:R:3 Free_Energy:=T -1513.343878=T Electronic_Energy:=T -1513.46067379=T pbc="F F F"
N       -0.31486400      -2.41235400       1.01722900
H        0.67258600      -2.07742900       0.89837100
H       -0.66260000      -2.75853900       0.12245500
H       -0.38398900      -3.12551700       1.73693500
N       -0.23660100       2.37081400       1.01992700
H       -0.26766500       3.31810000       1.38378600
H       -0.83598000       2.25626500       0.16675900
H        0.74556800       2.05817600       0.82862700
H       -0.65376800       1.69603200       1.67166400
S       -2.24884900       0.06969200      -0.22595000
O       -2.07327000       1.45190400      -0.71917000
O       -3.57868900      -0.49263800      -0.26827900
O       -1.36839500      -0.88479600      -1.19809100
O       -1.56158600      -0.07254100       1.11654200
H       -0.89212700      -1.54838100       1.23988800
H       -0.46863700      -0.49237200      -1.31052700
S        2.16854200      -0.00722800      -0.12212400
O        2.22814200       1.26357400       0.63296600
O        2.09609200      -1.21214900       0.71915900
O        1.16572400       0.03897400      -1.20357300
O        3.60847600      -0.17107100      -0.83273000
H        3.75981500       0.59496400      -1.40345900
