22
Properties=species:S:1:pos:R:3 Free_Energy:=T -1513.344203=T Electronic_Energy:=T -1513.46039864=T pbc="F F F"
N       -0.31020200      -2.41679000       1.02828800
H       -0.69462000      -2.79600100       0.16275100
H        0.67876300      -2.10826900       0.85609400
H       -0.86756800      -1.53381600       1.23733600
H       -0.36497000      -3.09793300       1.77954900
N       -0.22966600       2.39911400       0.99727400
H       -0.82071700       2.22171400       0.14626600
H        0.73836000       2.02165200       0.86403900
H       -0.21890200       3.38162900       1.25315600
H       -0.68079500       1.82391300       1.71439600
S        2.14256400      -0.00743500      -0.14200200
O        2.16830100       1.10331300       0.83514700
O        2.12226500      -1.33628200       0.51108200
O        1.14452600       0.16761000      -1.20174100
O        3.54396700       0.06060300      -0.94168400
H        4.26463100      -0.07605600      -0.31127100
S       -2.23358700       0.06434200      -0.21934500
O       -2.07305800       1.44799100      -0.71447400
O       -1.53543500      -0.06971900       1.11686300
O       -3.55916100      -0.50934000      -0.25219600
O       -1.35305500      -0.88315500      -1.19900400
H       -0.46554900      -0.47178100      -1.33163800
