22
Properties=species:S:1:pos:R:3 Free_Energy:=T -1513.343174=T Electronic_Energy:=T -1513.46052970=T pbc="F F F"
N       -0.36306100       2.40614000       0.98818700
H       -0.89047200       1.51585400       1.22988600
H       -0.41834300       3.10365800       1.72423400
H        0.62881500       2.12184300       0.79454200
H       -0.78025000       2.75066600       0.12280400
N       -0.11676500      -2.29191200       1.01652500
H       -0.26244600      -3.12472100       1.57858700
H        0.88734600      -2.01453200       0.97036400
H       -0.51564800      -2.40901000       0.07482300
H       -0.65245600      -1.47236400       1.38209500
S       -2.25845100      -0.10095100      -0.22116100
O       -1.54019700       0.02613500       1.11937200
O       -2.13497000      -1.47991400      -0.70848900
O       -3.55988600       0.52719600      -0.22353200
O       -1.35753800       0.83391700      -1.19932700
H       -0.47690600       0.40668200      -1.32182700
S        2.15505900       0.01413700      -0.13311000
O        2.08579500       1.39366000       0.39944300
O        2.31201000      -1.00196500       0.92885100
O        1.09986900      -0.32057800      -1.09831400
O        3.50008000      -0.03883600      -1.02510600
H        4.25211300       0.19443900      -0.46332700
