22
Properties=species:S:1:pos:R:3 Free_Energy:=T -1513.338571=T Electronic_Energy:=T -1513.45730823=T pbc="F F F"
N       -0.70744200       2.90012700      -0.06144800
H       -0.94140600       3.11337700      -1.02856200
H       -0.63528700       3.75716600       0.48025700
H       -1.46103100       2.26265200       0.31992500
H        0.21131800       2.37995700      -0.05070000
N        0.37972000      -2.87691200      -0.11378900
H        0.93629900      -2.13970300      -0.62777900
H        0.97668300      -3.36478700       0.54989000
H       -0.34551600      -2.30024400       0.39465600
H       -0.05873900      -3.53375200      -0.75421000
S        2.09625000       0.21688600      -0.04621400
O        1.65478400       1.62859600      -0.07144400
O        1.31837000      -0.57755100      -1.07585000
O        3.51860400      -0.01558900      -0.07543900
O        1.59112300      -0.39547400       1.36285800
H        0.60445300      -0.37318900       1.37944300
S       -2.04212300      -0.20815700       0.07462300
O       -2.51935700       1.05228700       0.67989600
O       -1.02146000      -0.88511100       0.95403200
O       -3.05306600      -1.12640300      -0.40648100
O       -1.18826500       0.31350900      -1.20212000
H       -0.26462000      -0.05775900      -1.21441400
