22
Properties=species:S:1:pos:R:3 Free_Energy:=T -1513.342308=T Electronic_Energy:=T -1513.45813541=T pbc="F F F"
N       -0.00206700       2.24592200       0.22100500
H        0.91002600       2.07893400      -0.26179500
H       -0.81263700       2.03394400      -0.40200500
H       -0.06356800       1.55385100       0.98010000
H       -0.06176200       3.19050600       0.58910800
N        0.00206700      -2.24592200       0.22100500
H        0.06356600      -1.55385000       0.98009900
H        0.81263800      -2.03394500      -0.40200400
H        0.06176100      -3.19050600       0.58910900
H       -0.91002400      -2.07893500      -0.26179700
S        2.45553200      -0.00475500      -0.08955500
O        2.40908900       1.32708200      -0.73393900
O        1.62657200      -0.04327000       1.13511900
O        2.21164400      -1.14957600      -0.97918800
O        3.99708600      -0.21871700       0.35618600
H        4.31746200       0.60131500       0.75500000
S       -2.45553200       0.00475500      -0.08955500
O       -2.40909000      -1.32708100      -0.73394000
O       -1.62657100       0.04327000       1.13511800
O       -2.21164500       1.14957600      -0.97918800
O       -3.99708600       0.21871700       0.35618800
H       -4.31746200      -0.60131700       0.75499900
