22
Properties=species:S:1:pos:R:3 Free_Energy:=T -1513.343533=T Electronic_Energy:=T -1513.45956902=T pbc="F F F"
N        2.26423200      -0.24382300      -0.00000000
H        2.08191700       0.31619100       0.86235700
H        3.20330600      -0.63037000      -0.00000000
H        1.56114700      -0.99524000      -0.00000000
H        2.08191700       0.31619100      -0.86235700
N       -2.26423200      -0.24382300       0.00000000
H       -1.56114600      -0.99524000      -0.00000000
H       -2.08191800       0.31619100       0.86235700
H       -2.08191800       0.31619100      -0.86235700
H       -3.20330500      -0.63037200       0.00000000
S       -0.00000000       0.08189500      -2.42969300
O       -1.23607800       0.88140000      -2.29056000
O        1.23607900       0.88140000      -2.29056000
O       -0.00000000      -1.13570500      -1.60474100
O        0.00000100      -0.48659600      -3.94729100
H        0.00000000       0.26567400      -4.55517600
S       -0.00000000       0.08189500       2.42969300
O        1.23607900       0.88140000       2.29056000
O       -1.23607800       0.88140000       2.29056000
O       -0.00000000      -1.13570500       1.60474100
O        0.00000100      -0.48659600       3.94729100
H        0.00000000       0.26567400       4.55517600
