22
Properties=species:S:1:pos:R:3 Free_Energy:=T -1513.342310=T Electronic_Energy:=T -1513.45881682=T pbc="F F F"
N       -0.01326900       2.25063900       0.21914300
H        0.88624100       2.06397500      -0.28195500
H       -0.07899400       1.55033300       0.97083900
H       -0.03630900       3.19118400       0.60145200
H       -0.84090700       2.07201100      -0.38956300
N       -0.00346900      -2.25941700       0.24429500
H        0.01120200      -1.56276300       1.00110100
H        0.03677300      -3.20164600       0.62088900
H       -0.88799200      -2.09495800      -0.28486600
H        0.83358000      -2.04843700      -0.34472500
S       -2.44041500      -0.00105800      -0.08008000
O       -2.28777600       1.20152600      -0.92588900
O       -2.33597400      -1.26857500      -0.83312800
O       -1.59834900       0.02805300       1.12701100
O       -3.94861600       0.04934400       0.51036000
H       -4.56820400       0.01692100      -0.23163900
S        2.44696000      -0.00424600      -0.09152700
O        2.37021600       1.30967400      -0.77061000
O        1.63382900      -0.02438000       1.14272800
O        2.21302800      -1.17500500      -0.94997100
O        3.99767400      -0.18161100       0.33841900
H        4.30479500       0.64748100       0.72876800
