81
  -185.43429885
   Na          -6.30941103          -6.39585642          -4.06231864
   Cl          -6.52993687          -6.61677381          -1.57894478
   Cl          -6.64367134          -3.91141027          -4.37368942
   Na          -6.56765216          -4.01079967          -1.66714089
   Na          -6.52806257          -1.33687426          -4.07727765
   Cl          -6.74886320          -1.43291605          -1.41952994
   Cl          -6.68733578           1.24348308          -4.23594095
   Na          -6.64889845           1.15382258          -1.59633580
   Na          -6.50023343           3.81858850          -3.98836390
   Cl          -6.71435548           3.72635001          -1.27069591
   Cl          -6.47405449           6.41656328          -4.07595201
   Na          -6.37271771           6.21380765          -1.58696678
   Cl          -3.82320529          -6.71947452          -4.37330153
   Na          -3.92523505          -6.64713688          -1.66463217
   Na          -3.91488243          -3.98959927          -4.20567896
   Cl          -3.96774824          -4.04550872          -1.46486280
   Cl          -3.93517357          -1.36506524          -4.28247266
   Na          -4.01295136          -1.43144286          -1.54178252
   Na          -3.95483813           1.23624480          -3.98481020
   Cl          -4.07201647           1.17930447          -1.21367018
   Cl          -3.89873743           3.84241208          -4.05468732
   Na          -3.96841389           3.82954938          -1.34200909
   Na          -3.86910412           6.44879086          -3.85302394
   Cl          -3.91346472           6.53506411          -1.13498341
   Na          -1.24892143          -6.59558724          -4.07217474
   Cl          -1.34785920          -6.82832882          -1.42060864
   Cl          -1.29021324          -3.99844955          -4.27585766
   Na          -1.35481047          -4.11091702          -1.52105394
   Na          -1.29953434          -1.35758543          -4.02164982
   Cl          -1.40075430          -1.49631042          -1.32567248
   Cl          -1.33715226           1.25149091          -4.01058192
   Na          -1.31582640           1.16165922          -1.11594348
   Na          -1.27863671           3.89093088          -3.80299839
   Cl          -1.37603025           3.83281140          -1.10602517
   Cl          -1.30128190           6.63270237          -3.95898497
   Na          -1.30457468           6.41899931          -1.30535510
   Cl           1.33838911          -6.73176112          -4.23908498
   Na           1.22946996          -6.65347794          -1.58442792
   Na           1.30858300          -4.00960060          -4.04734865
   Cl           1.25259573          -4.06419525          -1.28243783
   Cl           1.33539902          -1.37312662          -4.21883656
   Na           1.21113240          -1.45377516          -1.49855574
   Na           1.28924005           1.26850204          -3.91627372
   Cl           1.26411448           1.11666398          -1.26374717
   Cl           1.30849157           3.88001877          -3.91159041
   Na           1.26900264           3.88134838          -0.81558582
   Na           1.26572754           6.44799889          -3.62757935
   Cl           1.24827694           6.64610103          -0.99087751
   Na           3.90643520          -6.54751584          -3.95298684
   Cl           3.80027706          -6.76789738          -1.24880215
   Cl           3.92621254          -3.93395039          -4.00988402
   Na           3.86752803          -4.03818548          -1.28559578
   Na           3.95527302          -1.32660567          -3.87808852
   Cl           3.87138927          -1.40220584          -1.08814659
   Cl           3.95350058           1.26042780          -3.99198222
   Na           3.84732438           1.29881933          -1.20174227
   Na           3.91627676           3.90480147          -3.89566896
   Cl           3.92439263           3.87191670          -1.24053374
   Cl           3.83800301           6.64179978          -3.93489524
   Na           3.81607320           6.45634429          -1.20581738
   Cl           6.51243378          -6.49253099          -4.02226588
   Na           6.28315065          -6.40617538          -1.53271766
   Na           6.52591236          -3.90233011          -3.81245774
   Cl           6.58822210          -3.93529563          -1.08510221
   Cl           6.70110044          -1.32115786          -3.91308072
   Na           6.48403082          -1.36332212          -1.29344155
   Na           6.51863164           1.24991653          -3.64223612
   Cl           6.61154930           1.21305435          -0.93968353
   Cl           6.69733906           3.80562512          -3.89192408
   Na           6.50298055           3.83907324          -1.19774240
   Na           6.28726510           6.27344596          -3.49235515
   Cl           6.44584352           6.42908553          -0.99987576
    O           4.04715127           1.01197315           0.91811191
    H           4.94833895           1.18633003           0.60945136
    H           3.85845943           0.13221642           0.55952068
    O           1.75025825           2.98378875           1.11318783
    H           1.47450191           2.27923215           0.50519071
    H           2.54240532           2.61647382           1.51778252
    O          -1.92055117           1.13419035           0.96342139
    H          -2.22032244           1.36231902           1.84275982
    H          -2.71373060           1.15999050           0.40302992
