81
  -185.43672603
   Na          -6.30955420          -6.23256189          -3.61013781
   Cl          -6.48561207          -6.35689096          -1.11913337
   Cl          -6.65838721          -3.77673590          -4.04746745
   Na          -6.51450608          -3.74077297          -1.32807387
   Na          -6.52000119          -1.19987409          -3.80382035
   Cl          -6.76316877          -1.16397832          -1.17059680
   Cl          -6.67699407           1.37330557          -4.14730466
   Na          -6.52314703           1.38557244          -1.48425896
   Na          -6.49380258           3.94230185          -4.01468861
   Cl          -6.65332075           3.98698415          -1.30614037
   Cl          -6.44945625           6.54439510          -4.23795770
   Na          -6.31266502           6.44771755          -1.74177385
   Cl          -3.83925047          -6.60603308          -3.96806144
   Na          -3.87401940          -6.40502714          -1.26201321
   Na          -3.91689189          -3.84780961          -3.87643676
   Cl          -3.92422198          -3.81361649          -1.19992293
   Cl          -3.93833934          -1.23491815          -3.99908708
   Na          -4.02611191          -1.16241463          -0.97958714
   Na          -3.95196027           1.35001422          -3.96544855
   Cl          -3.92916546           1.46620077          -1.23027600
   Cl          -3.88119487           3.96907989          -4.13646365
   Na          -3.93509150           4.06838804          -1.39951368
   Na          -3.85582870           6.57722899          -4.07398103
   Cl          -3.83481950           6.79633478          -1.36549145
   Na          -1.27725919          -6.45746509          -3.67511713
   Cl          -1.28705643          -6.59536640          -1.02357808
   Cl          -1.29146807          -3.88545194          -3.95116331
   Na          -1.34361030          -3.83353087          -1.01461759
   Na          -1.31225929          -1.25466653          -4.01514427
   Cl          -1.26213199          -1.12124734          -1.38114801
   Cl          -1.29482691           1.39238325          -4.26916393
   Na          -1.34650558           1.45989703          -1.56049809
   Na          -1.28294769           4.02844850          -4.07333221
   Cl          -1.29284299           4.06649806          -1.29620945
   Cl          -1.27053405           6.74839072          -4.26047001
   Na          -1.26254731           6.65429044          -1.60405094
   Cl           1.29953396          -6.65659893          -3.96232766
   Na           1.27902451          -6.50737198          -1.31935097
   Na           1.28926288          -3.91526217          -3.82867615
   Cl           1.35604356          -3.91050032          -1.09169290
   Cl           1.34785955          -1.26774786          -4.01659653
   Na           1.34806829          -1.28433953          -1.21155781
   Na           1.30020383           1.34111314          -3.90993299
   Cl           1.30282122           1.44419325          -1.12415994
   Cl           1.33088415           3.97783821          -4.15098341
   Na           1.30325237           4.09238921          -1.42167231
   Na           1.29391346           6.58393021          -3.99307794
   Cl           1.31784057           6.80114458          -1.33449254
   Na           3.86902166          -6.47028274          -3.79976448
   Cl           3.87513010          -6.58041913          -1.08175749
   Cl           3.90762173          -3.86295641          -3.97194595
   Na           3.96948887          -3.84934809          -1.24333585
   Na           3.97361805          -1.25690427          -3.91206809
   Cl           3.97859890          -1.21057304          -1.15497034
   Cl           3.93788537           1.35236113          -4.11827568
   Na           3.97444476           1.37891547          -1.39620650
   Na           3.94644622           3.97534811          -4.04884905
   Cl           3.90740798           3.98440349          -1.29016870
   Cl           3.87337336           6.69426959          -4.22096471
   Na           3.89383867           6.59753338          -1.51530108
   Cl           6.47193848          -6.43902794          -3.98390600
   Na           6.34450845          -6.25430399          -1.49455233
   Na           6.51549228          -3.84096397          -3.87586152
   Cl           6.69001737          -3.76996222          -1.16191391
   Cl           6.69562678          -1.26174351          -4.09726339
   Na           6.56929883          -1.19701298          -1.44680079
   Na           6.53764352           1.31211836          -3.89937232
   Cl           6.69892241           1.38564398          -1.23776908
   Cl           6.66585289           3.88545618          -4.17262943
   Na           6.51858660           3.95894714          -1.47075224
   Na           6.35317876           6.37398118          -3.86118836
   Cl           6.49010564           6.55687094          -1.36742118
    O          -0.73403750          -3.12665381           1.03946695
    H          -0.41553090          -2.25610979           1.30527081
    H           0.00365354          -3.46016119           0.50086818
    O           1.06498100          -0.75521507           0.97611237
    H           1.33646037          -0.36456817           1.80735424
    H           1.00189588          -0.00117639           0.36067586
    O          -3.15079441          -1.49446875           0.99474593
    H          -2.45050087          -1.39595892           0.32774087
    H          -2.88212851          -2.28437685           1.47098011
