81
  -185.43761766
   Na          -6.34370036          -6.41659527          -4.04913673
   Cl          -6.53721024          -6.63292756          -1.56258776
   Cl          -6.66995313          -3.93247337          -4.35148419
   Na          -6.57600123          -4.03040770          -1.64193232
   Na          -6.56044924          -1.35901121          -4.02952789
   Cl          -6.75601886          -1.46453574          -1.37747220
   Cl          -6.72094306           1.21403652          -4.17106126
   Na          -6.61047870           1.12254313          -1.51394559
   Na          -6.55651610           3.78698304          -3.92739143
   Cl          -6.72683843           3.69291041          -1.22118600
   Cl          -6.54056527           6.38703106          -4.02387414
   Na          -6.39837399           6.17488152          -1.53406568
   Cl          -3.85454060          -6.73127443          -4.36252248
   Na          -3.94103640          -6.65178059          -1.65675286
   Na          -3.95084516          -4.00523744          -4.19425316
   Cl          -3.96816765          -4.04607540          -1.44330008
   Cl          -3.96253830          -1.38813239          -4.23801524
   Na          -4.02631824          -1.42752877          -1.49591928
   Na          -3.99032140           1.21385395          -3.93313356
   Cl          -4.02538404           1.15555113          -1.18424545
   Cl          -3.95188904           3.82071436          -4.03834240
   Na          -3.97771127           3.78348850          -1.30458102
   Na          -3.94082812           6.42165516          -3.85841183
   Cl          -3.92959696           6.51801492          -1.14402559
   Na          -1.28346318          -6.60861258          -4.09142690
   Cl          -1.35789873          -6.80855618          -1.42940850
   Cl          -1.32245278          -4.00778848          -4.28266316
   Na          -1.37994328          -4.11164032          -1.56639058
   Na          -1.32945605          -1.35897191          -4.03111055
   Cl          -1.37188904          -1.48052897          -1.30936050
   Cl          -1.36914332           1.24271325          -4.07056009
   Na          -1.40594985           1.18791551          -1.02426606
   Na          -1.33517235           3.87048572          -3.92268683
   Cl          -1.35034697           3.82952738          -1.18095823
   Cl          -1.36724857           6.61476707          -4.04358747
   Na          -1.35537442           6.42753916          -1.39240369
   Cl           1.29702296          -6.74983717          -4.25917013
   Na           1.21525959          -6.65099456          -1.61216719
   Na           1.28321873          -4.02993551          -4.10037595
   Cl           1.23330951          -4.04962014          -1.30114460
   Cl           1.29065444          -1.40544720          -4.29446313
   Na           1.28075437          -1.37401765          -1.54261950
   Na           1.27562887           1.25263146          -4.24531008
   Cl           1.27238978           1.25802339          -1.61452913
   Cl           1.26448887           3.90911737          -4.27795354
   Na           1.22349141           3.91033309          -1.52799899
   Na           1.21771128           6.48330663          -3.85822176
   Cl           1.21526361           6.60047790          -1.19377175
   Na           3.87842594          -6.57670425          -4.02543520
   Cl           3.77962200          -6.74654522          -1.31074837
   Cl           3.88827056          -3.97073313          -4.15413189
   Na           3.89028754          -4.03590305          -1.43260295
   Na           3.94790515          -1.33817816          -4.03707603
   Cl           3.88676095          -1.43321960          -1.33197891
   Cl           3.91975922           1.25117581          -4.09179400
   Na           3.93150280           1.19392406          -0.92063616
   Na           3.88524979           3.85037184          -3.91866674
   Cl           3.79462865           3.80140595          -1.18700715
   Cl           3.80979917           6.59297395          -3.98752977
   Na           3.79361125           6.41001603          -1.27981489
   Cl           6.47503600          -6.53643545          -4.08721294
   Na           6.27415717          -6.42123659          -1.59724963
   Na           6.49549249          -3.92874686          -3.91933143
   Cl           6.59109013          -3.94939945          -1.20342180
   Cl           6.68905968          -1.35714708          -4.07804025
   Na           6.47896357          -1.35700231          -1.43060124
   Na           6.47755640           1.21022950          -3.72630548
   Cl           6.63873477           1.19588098          -1.07055627
   Cl           6.63032308           3.78853926          -3.95983283
   Na           6.40643659           3.76806334          -1.26466783
   Na           6.27539267           6.25230235          -3.56584073
   Cl           6.38145944           6.36970137          -1.06726358
    O           1.06261287          -1.56942443           0.61889822
    H           1.15413497          -2.46646526           0.26184862
    H           0.15995433          -1.32172198           0.36863377
    O           2.75586561           0.69696618           0.98687065
    H           2.27073439           0.74997423           0.14739422
    H           2.53800380          -0.18913644           1.29738246
    O          -0.30495430           1.01900944           0.91534473
    H           0.25351962           1.20260927           0.13934257
    H           0.33195829           0.91282213           1.62680723
