81
  -185.43370705
   Na          -6.39904679          -6.32906802          -3.95126919
   Cl          -6.57088895          -6.49708680          -1.45972944
   Cl          -6.70669764          -3.84870882          -4.29637825
   Na          -6.60546800          -3.89445192          -1.58396035
   Na          -6.57746631          -1.26882596          -4.02876141
   Cl          -6.79734249          -1.32611069          -1.38073565
   Cl          -6.74004819           1.29287626          -4.26714704
   Na          -6.66686896           1.26834387          -1.60032918
   Na          -6.55005541           3.87308869          -4.07860755
   Cl          -6.75429255           3.85111449          -1.38050018
   Cl          -6.51361967           6.47028649          -4.23805881
   Na          -6.39451611           6.32337785          -1.74044239
   Cl          -3.91079942          -6.65939204          -4.28296336
   Na          -3.97984940          -6.53899662          -1.57556635
   Na          -3.99189761          -3.93477889          -4.15352652
   Cl          -3.98938506          -3.92771399          -1.40015264
   Cl          -3.97324426          -1.32510052          -4.22702914
   Na          -4.07404376          -1.30086464          -1.46939265
   Na          -4.00661496           1.28672279          -4.02832026
   Cl          -4.09149507           1.28276883          -1.32219140
   Cl          -3.94338325           3.88379202          -4.19904840
   Na          -4.00039555           3.91166406          -1.43570444
   Na          -3.91362094           6.48961683          -4.05111009
   Cl          -3.92765508           6.66612435          -1.35176622
   Na          -1.33968374          -6.55768036          -4.02943021
   Cl          -1.39476821          -6.74242996          -1.36542006
   Cl          -1.35592705          -3.95281953          -4.22483614
   Na          -1.40064435          -4.05363598          -1.51463960
   Na          -1.35873200          -1.31370499          -3.91606946
   Cl          -1.40693308          -1.40777678          -1.17406309
   Cl          -1.36420621           1.28286966          -3.97380658
   Na          -1.46849187           1.38391357          -1.06432863
   Na          -1.34276460           3.93196204          -3.98632715
   Cl          -1.38476593           3.99835444          -1.28032606
   Cl          -1.33416815           6.66516995          -4.21086702
   Na          -1.33689443           6.57160326          -1.54342640
   Cl           1.24009249          -6.72453783          -4.22183335
   Na           1.18718600          -6.64400528          -1.57362031
   Na           1.24685851          -4.00161643          -4.05593480
   Cl           1.22819411          -4.04313371          -1.27975273
   Cl           1.26621922          -1.36805454          -4.05008546
   Na           1.29923073          -1.33443420          -1.29986085
   Na           1.24629989           1.26980827          -3.89663194
   Cl           1.27020537           1.28398527          -1.19777738
   Cl           1.26383071           3.88405294          -4.18061679
   Na           1.20808432           3.94148595          -1.40516604
   Na           1.23080561           6.48172953          -3.94985294
   Cl           1.25036061           6.67594534          -1.30269652
   Na           3.82238000          -6.56735889          -4.00059784
   Cl           3.76058877          -6.72657698          -1.28909731
   Cl           3.85267291          -3.95851557          -4.13453829
   Na           3.88567538          -4.00873517          -1.41336680
   Na           3.91711028          -1.35008491          -3.97180917
   Cl           3.90806737          -1.39634981          -1.22962473
   Cl           3.88319353           1.24098847          -4.11520664
   Na           3.92349553           1.23112352          -1.33972898
   Na           3.87883792           3.87029839          -4.03230691
   Cl           3.82845584           3.84158543          -1.29615659
   Cl           3.81466881           6.59021562          -4.17481248
   Na           3.82008688           6.45497199          -1.45663002
   Cl           6.41813763          -6.54706238          -4.10070128
   Na           6.25395453          -6.41615729          -1.60761059
   Na           6.46661840          -3.94634041          -3.94436514
   Cl           6.59480718          -3.94053479          -1.23748246
   Cl           6.64366481          -1.37151447          -4.10883056
   Na           6.50328149          -1.34591645          -1.44829209
   Na           6.47847693           1.20402973          -3.86802720
   Cl           6.63239343           1.23143559          -1.21334381
   Cl           6.61030340           3.77070399          -4.13137848
   Na           6.43756090           3.81456367          -1.41907691
   Na           6.28548829           6.25400830          -3.78899832
   Cl           6.42046511           6.41002229          -1.29611836
    O           0.92419668          -1.79471396           0.78675904
    H           0.05812079          -1.69002670           0.36189376
    H           1.22903062          -2.64539919           0.43728497
    O           1.32669965           0.81509883           1.92332719
    H           1.45717269           1.08820096           1.00194491
    H           1.40486249          -0.14664003           1.90060624
    O          -1.28959044           0.93946786           1.01704013
    H          -1.22085444           0.07432502           0.59833948
    H          -0.52204793           0.97678123           1.61179381
