81
  -185.43673466
   Na          -6.31063726          -6.23152189          -3.59833228
   Cl          -6.48360062          -6.35576297          -1.10648023
   Cl          -6.66047969          -3.77635392          -4.03935992
   Na          -6.51247303          -3.73891762          -1.32090630
   Na          -6.52015241          -1.19910731          -3.79835271
   Cl          -6.76133352          -1.16296456          -1.16505623
   Cl          -6.67776342           1.37337864          -4.14168269
   Na          -6.52217727           1.38808261          -1.48110714
   Na          -6.49208625           3.94294693          -4.00741978
   Cl          -6.65339834           3.98821128          -1.30157637
   Cl          -6.44973141           6.54475965          -4.23027861
   Na          -6.31120802           6.44887212          -1.73462111
   Cl          -3.84133343          -6.60777957          -3.96252797
   Na          -3.87425278          -6.40394223          -1.25770721
   Na          -3.91813910          -3.84833270          -3.87836800
   Cl          -3.92172151          -3.81256125          -1.20441001
   Cl          -3.93901744          -1.23455990          -4.00503202
   Na          -4.02565516          -1.16210970          -0.98178226
   Na          -3.95212814           1.34986311          -3.96758748
   Cl          -3.92836190           1.46592766          -1.23355077
   Cl          -3.88108816           3.96939381          -4.13657059
   Na          -3.93342892           4.06910865          -1.40040728
   Na          -3.85556093           6.57670384          -4.07180624
   Cl          -3.83233398           6.79757440          -1.36460747
   Na          -1.27608845          -6.45813064          -3.67645519
   Cl          -1.28661001          -6.59494953          -1.02511058
   Cl          -1.29247154          -3.88672747          -3.96257930
   Na          -1.34006509          -3.83356515          -1.02511060
   Na          -1.31192211          -1.25457066          -4.02424768
   Cl          -1.26399564          -1.12489151          -1.38993151
   Cl          -1.29508509           1.39225569          -4.27034676
   Na          -1.34560314           1.45759753          -1.56287436
   Na          -1.28300748           4.02679390          -4.07588963
   Cl          -1.29265946           4.06585230          -1.29630459
   Cl          -1.26961355           6.74568166          -4.26047819
   Na          -1.26008845           6.65527237          -1.60402437
   Cl           1.30106864          -6.65562427          -3.96231228
   Na           1.27752246          -6.50609362          -1.31895358
   Na           1.28958519          -3.91494379          -3.83595944
   Cl           1.35620427          -3.90863570          -1.10081967
   Cl           1.34862763          -1.26762650          -4.02257647
   Na           1.34651702          -1.28355069          -1.22042631
   Na           1.29999230           1.34184578          -3.91248868
   Cl           1.30238829           1.44449742          -1.12742117
   Cl           1.33041965           3.97792512          -4.15353660
   Na           1.30304879           4.09240580          -1.42449135
   Na           1.29430080           6.58424527          -3.99273115
   Cl           1.31964986           6.80197520          -1.33493701
   Na           3.87088813          -6.46876816          -3.79480633
   Cl           3.87205322          -6.57672316          -1.07605600
   Cl           3.90817926          -3.86302007          -3.97626128
   Na           3.96811415          -3.84684885          -1.24716724
   Na           3.97416444          -1.25728483          -3.91436349
   Cl           3.97731315          -1.20870703          -1.15615434
   Cl           3.93815108           1.35240521          -4.11839333
   Na           3.97542868           1.38030155          -1.39768735
   Na           3.94680896           3.97503282          -4.05098539
   Cl           3.90774556           3.98531038          -1.29062798
   Cl           3.87460588           6.69371737          -4.22130813
   Na           3.89423164           6.59661337          -1.51605701
   Cl           6.47315063          -6.43927653          -3.96906647
   Na           6.34329094          -6.25333964          -1.47875054
   Na           6.51485762          -3.84015044          -3.86827138
   Cl           6.68754185          -3.76715415          -1.15385217
   Cl           6.69644708          -1.26067372          -4.09335224
   Na           6.56828173          -1.19499031          -1.44299900
   Na           6.53750581           1.31244423          -3.89508587
   Cl           6.69798715           1.38787753          -1.23362766
   Cl           6.66626211           3.88657310          -4.17044825
   Na           6.51937461           3.96084171          -1.46855480
   Na           6.35468527           6.37531228          -3.85892702
   Cl           6.49034076           6.55727991          -1.36481793
    O          -0.73477752          -3.12959102           1.02943544
    H          -0.41957463          -2.25992780           1.30147600
    H           0.00562780          -3.45604458           0.48992952
    O           1.06011434          -0.75960968           0.96938722
    H           1.33409944          -0.37158762           1.80077128
    H           0.99802345          -0.00456456           0.35525862
    O          -3.14978998          -1.49854085           0.99210376
    H          -2.45015108          -1.40336168           0.32398237
    H          -2.88577939          -2.28997285           1.46834006
