81
  -185.43387479
   Na          -6.27481191          -6.35607789          -3.91506656
   Cl          -6.41876714          -6.55170536          -1.42455862
   Cl          -6.60136346          -3.87314536          -4.24476611
   Na          -6.45070900          -3.95082062          -1.53424885
   Na          -6.47709222          -1.29673238          -3.96042697
   Cl          -6.62297252          -1.37814423          -1.30592757
   Cl          -6.63156253           1.28001897          -4.10682911
   Na          -6.45697349           1.20709502          -1.44983139
   Na          -6.45853467           3.85197749          -3.87476965
   Cl          -6.54827336           3.78290090          -1.16470421
   Cl          -6.43754137           6.45071302          -3.99114578
   Na          -6.21505953           6.26140204          -1.50457380
   Cl          -3.79741842          -6.68775386          -4.28270410
   Na          -3.81958749          -6.58328015          -1.57359343
   Na          -3.87716889          -3.95617919          -4.15199436
   Cl          -3.84187399          -3.97756972          -1.40491902
   Cl          -3.88349762          -1.33178531          -4.24624649
   Na          -3.91034884          -1.36435433          -1.49791563
   Na          -3.89911154           1.26544623          -3.93924600
   Cl          -3.86675771           1.22623518          -1.20027312
   Cl          -3.85560799           3.87171380          -4.05312974
   Na          -3.80546888           3.85728311          -1.31096607
   Na          -3.83794674           6.47747925          -3.90676720
   Cl          -3.73183112           6.60031951          -1.19986042
   Na          -1.22325728          -6.56691153          -4.04883299
   Cl          -1.23481260          -6.75562261          -1.38835023
   Cl          -1.25533414          -3.96863228          -4.28172153
   Na          -1.23970132          -4.05409416          -1.54400680
   Na          -1.24819428          -1.32764925          -4.03619552
   Cl          -1.25837294          -1.43491590          -1.34446067
   Cl          -1.26582996           1.29054856          -4.01468002
   Na          -1.22663280           1.29073785          -1.15133885
   Na          -1.25150675           3.92778494          -3.96649030
   Cl          -1.17491852           3.93145301          -1.22455609
   Cl          -1.27082007           6.65734537          -4.17602350
   Na          -1.15617302           6.51441449          -1.52150702
   Cl           1.34629497          -6.71563374          -4.25969436
   Na           1.34974349          -6.60638881          -1.60949784
   Na           1.33861645          -3.97889583          -4.04524980
   Cl           1.36973725          -4.01455072          -1.27209613
   Cl           1.36656268          -1.34539435          -4.15628668
   Na           1.49515981          -1.30681796          -1.35562334
   Na           1.34832002           1.27485801          -3.99460758
   Cl           1.47221511           1.35259228          -1.28988347
   Cl           1.33598924           3.90583211          -4.29459467
   Na           1.41796685           3.97764458          -1.55143189
   Na           1.30747019           6.50500936          -4.06495769
   Cl           1.43493164           6.68705077          -1.41224717
   Na           3.92340660          -6.54051225          -4.13273049
   Cl           3.93887278          -6.67313872          -1.41570035
   Cl           3.93267629          -3.93776917          -4.25916868
   Na           4.01851607          -3.93663612          -1.51506831
   Na           4.01002555          -1.32460798          -4.19637285
   Cl           4.12675869          -1.32810420          -1.48492310
   Cl           3.96388015           1.27884043          -4.37365408
   Na           4.10164382           1.27152963          -1.61293430
   Na           3.95919879           3.89880506          -4.28344667
   Cl           4.03575834           3.89204583          -1.53738446
   Cl           3.87305900           6.62581742          -4.41607222
   Na           4.00362536           6.49923956          -1.71172987
   Cl           6.51106924          -6.51454221          -4.34534867
   Na           6.40714981          -6.34453905          -1.85066878
   Na           6.54542760          -3.91174486          -4.20542360
   Cl           6.77819777          -3.87526273          -1.50480193
   Cl           6.73486967          -1.33936092          -4.45019858
   Na           6.69738807          -1.29175283          -1.78863899
   Na           6.56748336           1.23605826          -4.22110233
   Cl           6.83985059           1.29255347          -1.57479208
   Cl           6.68024702           3.81450541          -4.50199684
   Na           6.63638182           3.86499186          -1.79207525
   Na           6.36412959           6.29510367          -4.14852121
   Cl           6.60648370           6.46765513          -1.66328956
    O           1.30294026          -1.54949066           0.73617539
    H           1.07799089          -2.43825766           0.43395810
    H           0.98241879          -1.49114055           1.65100670
    O           0.10770518          -0.74349400           3.11356489
    H          -0.38093694          -0.21834758           2.45443316
    H           0.72216825          -0.12749377           3.51585351
    O          -0.68452022           0.63387275           0.82534771
    H           0.18482552           0.84886585           0.45030933
    H          -0.90795068          -0.17736578           0.33530158
